.C.C.C.C.C. CCFCFCFCFC!]C.C.C.CC.C.CWC.C.CAS CCCCC!]C	FCFCFCCFCFCFCFCFC!C!]C!]C!]CC.C.CWC.C.CT!CCCWC.Ct:Cn!CWCt:C)!CU%CAS CAS CAS CAS CC	FCCCCCCCCC!C	FC!]C!]C	FC
.C	FCFCFCFCT!CCCFCFCt:Cn!Ct:Ct:C)!CB)C!C!C!C!]C!]C!]C!]C!]C!]CT!CCCWC	FCt:Cn!Ct:Ct:C)!C,CT!CT!CCt:Ct:Cn!Ct:Ct:C)!CŪ0Cn!Ct:C)!Ccb4CD+CU%CU%CU%CU%CAS CAS CAS CAS CAS CAS CAS CAS CAS CAS C!CCCCC	FCCCCCT!CCCCCCn!CCC)!CB)C!C!C!C!]C	FC!]C!]C!]C!]CT!C	FCC	FC
.Ct:Cn!Ct:Ct:C)!C,CT!CT!Ct:Ct:Ct:Cn!Ct:Ct:C)!CŪ0Cn!Ct:C)!Ccb4Cj02CB)CB)CB)C!C!C!C!C!C!CT!C!]C!]C!]C	FCt:Cn!Ct:Ct:C)!C,CT!CT!Ct:C	FCt:Cn!C	FC	FC)!CŪ0Cn!Ct:C)!Ccb4CO8C,C,CT!CT!CT!Cn!Ct:Ct:C)!CŪ0Cn!Ct:C)!Ccb4Cey>CŪ0Cn!C)!Ccb4CDCCCC C!C"CChChChChC:CCCCuCCCCCC!CCCCC:C	] ChChCuChChChChChC"C:C:C:CuCCCCCC#CuCuCCCbC#CbCbCP#C'C!C!C!C!CC	] CCCCCCCCC"C	] C:C:C	] C
W30C	] ChChChC#CuCuChChCbC#CbCbCP#C=$+C"C"C"C:C:C:C:C:C:C#CuCuCbC	] CbC#CbCbCP#Cxn/C#C#CuCbCbC#CbCbCP#C62C#CbCP#C"6C˶,C'C'C'C'C!C!C!C!C!C!C!C!C!C!C"CCCCC	] CCCCC#CCCCCC#CCCP#C=$+C"C"C"C:C	] C:C:C:C:C#C	] CuC	] C
W30CbC#CbCbCP#Cxn/C#C#CbCbCbC#CbCbCP#C62C#CbCP#C"6C4C=$+C=$+C=$+C"C"C"C"C"C"C#C:C:C:C	] CbC#CbCbCP#Cxn/C#C#CbC	] CbC#C	] C	] CP#C62C#CbCP#C"6C:Cxn/Cxn/C#C#C#C#CbCbCP#C62C#Cb CP#C"6C?C62C#CP#C"6Cb1ECCC C!C"C#CASCCCCC_CCCCCCCCCCU#CASCASCASCASC_C	!CCCCCCCCCT%$C_C_C_CCCCCCC$CCCCCC$%CCC%CD)CU#CU#CU#CU#CASC	!CASCASCASCASCASCASCASCASCT%$C	!C_C_C	!C
 1C	!CCCC$CCCCCC$%CCC%C:-CT%$CT%$CT%$C_C_C_C_C_C_C$CCCC	!CC$%CCC%CI1C$C$CCCC$%CCC%CP4C$%CC%CC8C/CD)CD)CD)CD)CU#CU#CU#CU#CU#CU#CU#CU#CU#CU#CT%$CASCASCASCASC	!CASCASCASCASC$CASCASCASCASCASC$%CASCASC%C:-CT%$CT%$CT%$C_C	!C_C_C_C_C$C	!CC	!C
 1CC$%CCC%CI1C$C$CCCC$%CCC%CP4C$%CC%CC8C]F5C:-C:-C:-CT%$CT%$CT%$CT%$CT%$CT%$C$C_C_C_C	!CC$%CCC%CI1C$C$CC	!CC$%C	!C	!C%CP4C$%C C%CC8C;CI1CI1C$C$C$C$%CC C%CP4C$%C!C%CC8CjACP4C$%C%CC8C1FCe Ce!Ce"Ce#Ce$Ce%CCeCeCeCeCCeCeCeCJCeCeCeCeCeC%CCCCCC	i#CeCeCJCeCeCeCeCeCB&CCCCJCeCeCeCeCeCHf'CJCJCeCeCeC['CeCJC'C˶*C%C%C%C%CC	i#CCCCCCCCCB&C	i#CCC	i#C
3C	i#CeCeCeCHf'CJCJCeCeCJC['CJCJC'Cj0/CB&CB&CB&CCCCCCCHf'CJCJCeC	i#CJC['CJCJC'C2CHf'CHf'CJCJCJC['CJCJC'Cŀ6C['CJ C'Cd9C0C˶*C˶*C˶*C˶*C%C%C%C%C%C%C%C%C%C%CB&CCCCC	i#CCCCCHf'CCCCCC['CCC'Cj0/CB&CB&CB&CC	i#CCCCCHf'C	i#CJC	i#C
3CJC['CJCJC'C2CHf'CHf'CJCJCJC['CJCJ C'Cŀ6C['CJ!C'Cd9C 7Cj0/Cj0/Cj0/CB&CB&CB&CB&CB&CB&CHf'CCCC	i#CJC['CJCJ C'C2CHf'CHf'CJC	i#CJ C['C	i#C	i#C'Cŀ6C['CJ"C'Cd9C<C2C2CHf'CHf'CHf'C['CJ!CJ"C'Cŀ6C['CJ#C'Cd9CACŀ6C['C'Cd9C/GC"C#C$C%C&C'CU!CCCCCCCCCTCCCCCCD'CU!CU!CU!CU!CC	]%CCCTCCCCCC=$(CCCCTCCCCCC(CTCTCCCCH)CCCΣ)C-CD'CD'CD'CD'CU!C	]%CU!CU!CU!CU!CU!CU!CU!CU!C=$(C	]%CCC	]%C
5C	]%CCCC(CTCTCCCCH)CCCΣ)C1C=$(C=$(C=$(CCCCCCC(CTCTCC	]%CCH)CCCΣ)CO4C(C(CCCCH)CC CΣ)CJ7CH)C!CΣ)Cڀ;C2C-C-C-C-CD'CD'CD'CD'CD'CD'CD'CD'CD'CD'C=$(CU!CU!CU!CU!C	]%CU!CU!CU!CU!C(CU!CU!CU!CU!CU!CH)CU!CU!CΣ)C1C=$(C=$(C=$(CC	]%CCCCC(C	]%CC	]%C
5CCH)CC CΣ)CO4C(C(CCC CH)C C!CΣ)CJ7CH)C"CΣ)Cڀ;C%8C1C1C1C=$(C=$(C=$(C=$(C=$(C=$(C(CCCC	]%C CH)C C!CΣ)CO4C(C(CC	]%C!CH)C	]%C	]%CΣ)CJ7CH)C#CΣ)Cڀ;C=CO4CO4C(C(C(CH)C"C#CΣ)CJ7CH)C$CΣ)Cڀ;C CCJ7CH)CΣ)Cڀ;CӐGCn#Cn$Cn%Cn&Cn'Cn(C#CnCnCnCnCT%!CnCnCnCCnCnCnCnCnC˶(C#C#C#C#CT%!C	;'CnCnCCnCnCnCnCnC:*CT%!CT%!CT%!CCnCnCnCnCnCxn+CCCnCnCnCŪ+CnCC:,C.C˶(C˶(C˶(C˶(C#C	;'C#C#C#C#C#C#C#C#C:*C	;'CT%!CT%!C	;'C
r7C	;'CnCnCnCxn+CCCnCnCCŪ+CC C:,C]F2C:*C:*C:*CT%!CT%!CT%!CT%!CT%!CT%!Cxn+CCCnC	;'C CŪ+C C!C:,C6Cxn+Cxn+CC C!CŪ+C!C"C:,Cey9CŪ+C#C:,Cʠ<CEO3C.C.C.C.C˶(C˶(C˶(C˶(C˶(C˶(C˶(C˶(C˶(C˶(C:*C#C#C#C#C	;'C#C#C#C#Cxn+C#C#C#C#C#CŪ+C#C#C:,C]F2C:*C:*C:*CT%!C	;'CT%!CT%!CT%!CT%!Cxn+C	;'CC	;'C
r7C!CŪ+C!C"C:,C6Cxn+Cxn+C C!C"CŪ+C"C#C:,Cey9CŪ+C$C:,Cʠ<C9C]F2C]F2C]F2C:*C:*C:*C:*C:*C:*Cxn+CT%!CT%!CT%!C	;'C"CŪ+C"C#C:,C6Cxn+Cxn+C!C	;'C#CŪ+C	;'C	;'C:,Cey9CŪ+C%C:,Cʠ<C2?C6C6Cxn+Cxn+Cxn+CŪ+C$C%C:,Cey9CŪ+C&C:,Cʠ<C9CCey9CŪ+C:,Cʠ<CeHCy%Cy&Cy'Cy(Cy)Cy*CD%Cy Cy Cy Cy CB#Cy Cy Cy C Cy Cy Cy Cy Cy C+CD%CD%CD%CD%CB#C	)Cy Cy C Cy Cy Cy Cy Cy Cj0,CB#CB#CB#C Cy Cy Cy Cy Cy CI-C C Cy Cy Cy C6-Cy Cd!Ccb.C0C+C+C+C+CD%C	)CD%CD%CD%CD%CD%CD%CD%CD%Cj0,C	)CB#CB#C	)C
`29C	)Cy Cy Cy CI-C C Cy Cy Cd!C6-Cd!Cd"Ccb.C 4Cj0,Cj0,Cj0,CB#CB#CB#CB#CB#CB#CI-C C Cy C	)Cd"C6-Cd"Cd#Ccb.C7CI-CI-Cd!Cd"Cd#C6-Cd#Cd$Ccb.C:C6-Cd%Ccb.C>C5C0C0C0C0C+C+C+C+C+C+C+C+C+C+Cj0,CD%CD%CD%CD%C	)CD%CD%CD%CD%CI-CD%CD%CD%CD%CD%C6-CD%CD%Ccb.C 4Cj0,Cj0,Cj0,CB#C	)CB#CB#CB#CB#CI-C	)Cd!C	)C
`29Cd#C6-Cd#Cd$Ccb.C7CI-CI-Cd"Cd#Cd$C6-Cd$Cd%Ccb.C:C6-Cd&Ccb.C>C2:C 4C 4C 4Cj0,Cj0,Cj0,Cj0,Cj0,Cj0,CI-CB#CB#CB#C	)Cd$C6-Cd$Cd%Ccb.C7CI-CI-Cd#C	)Cd%C6-C	)C	)Ccb.C:C6-Cd'Ccb.C>C7@C7C7CI-CI-CI-C6-Cd&Cd'Ccb.C:C6-Cd(Ccb.C>C,DC:C6-Ccb.C>CHC
'C
(C
)C
*C
+C
,C˶&C
"C
"C
"C
"C=$%C
"C
"C
"CHf#C
"C
"C
"C
"C
"C,C˶&C˶&C˶&C˶&C=$%C	*C
"C
"CHf#C
"C
"C
"C
"C
"C.C=$%C=$%C=$%CHf#C
"C
"C
"C
"C
"C.CHf#CHf#C
"C
"C"CP/C"C#C"0CEO1C,C,C,C,C˶&C	*C˶&C˶&C˶&C˶&C˶&C˶&C˶&C˶&C.C	*C=$%C=$%C	*C
:C	*C
"C
"C"C.CHf#CHf#C
"C"C#CP/C#C$C"0C%5C.C.C.C=$%C=$%C=$%C=$%C=$%C=$%C.CHf#CHf#C"C	*C$CP/C$C%C"0C8C.C.CHf#C$C%CP/C%C&C"0Cj<CP/C'C"0Cb1?CY6CEO1CEO1CEO1CEO1C,C,C,C,C,C,C,C,C,C,C.C˶&C˶&C˶&C˶&C	*C˶&C˶&C˶&C˶&C.C˶&C˶&C˶&C˶&C˶&CP/C˶&C˶&C"0C%5C.C.C.C=$%C	*C=$%C=$%C=$%C=$%C.C	*CHf#C	*C
:C%CP/C%C&C"0C8C.C.C$C%C&CP/C&C'C"0Cj<CP/C(C"0Cb1?C;C%5C%5C%5C.C.C.C.C.C.C.C=$%C=$%C=$%C	*C&CP/C&C'C"0C8C.C.C%C	*C'CP/C	*C	*C"0Cj<CP/C)C"0Cb1?CAC8C8C.C.C.CP/C(C)C"0Cj<CP/C*C"0Cb1?C ECj<CP/C"0Cb1?C9IC(C)C*C+C,C-C)C#C#C#C#C:'C#C#C#C$C#C#C#C#C#C.C)C)C)C)C:'C	x,C#C#C$C#C#C#C#C#C]F/C:'C:'C:'C$C#C#C#C#C#CO0C$C$C#C#C#Cŀ1C#C$CC2C3C.C.C.C.C)C	x,C)C)C)C)C)C)C)C)C]F/C	x,C:'C:'C	x,C
`X<C	x,C#C#C#CO0C$C$C#C#C$Cŀ1C$C%CC2C6C]F/C]F/C]F/C:'C:'C:'C:'C:'C:'CO0C$C$C#C	x,C%Cŀ1C%C&CC2C9CO0CO0C$C%C&Cŀ1C&C'CC2C<Cŀ1C(CC2C1@Cr7C3C3C3C3C.C.C.C.C.C.C.C.C.C.C]F/C)C)C)C)C	x,C)C)C)C)CO0C)C)C)C)C)Cŀ1C)C)CC2C6C]F/C]F/C]F/C:'C	x,C:'C:'C:'C:'CO0C	x,C$C	x,C
`X<C&Cŀ1C&C'CC2C9CO0CO0C%C&C'Cŀ1C'C(CC2C<Cŀ1C)CC2C1@C =C6C6C6C]F/C]F/C]F/C]F/C]F/C]F/CO0C:'C:'C:'C	x,C:'Cŀ1C:'C(CC2C9CO0CO0C&C	x,C(Cŀ1C	x,C	x,CC2C<Cŀ1C*CC2C1@CAC9C9CO0CO0CO0Cŀ1C)C*CC2C<Cŀ1C+CC2C1@CEC=Cŀ1CC2C@C8IC*C+C,C-C.C/C*C%C%C%C%Cj0)C%C%C%Cxn'C%C%C%C%C%CEO/C*C*C*C*Cj0)C	_.C%C%Cxn'C%C%C%C%C%C 1Cj0)Cj0)Cj0)Cxn'C%C%C%C%C%C2Cxn'Cxn'C%C%Co%CJ2Co%Co&Cd3CY4CEO/CEO/CEO/CEO/C*C	_.C*C*C*C*C*C*C*C*C 1C	_.Cj0)Cj0)C	_.C
=C	_.C%C%Co%C2Cxn'Cxn'C%Co%Co&CJ2Co&Co'Cd3C27C 1C 1C 1Cj0)Cj0)Cj0)Cj0)Cj0)Cj0)C2Cxn'Cxn'Co%C	_.Co'CJ2Co'Co(Cd3C2;C2C2Cxn'Co'Co(CJ2Co(Co)Cd3C >CJ2Co*Cd3C/AC8CY4CY4CY4CY4CEO/CEO/CEO/CEO/CEO/CEO/CEO/CEO/CEO/CEO/C 1C*C*C*C*C	_.C*C*C*C*C2C*C*C*C*C*CJ2C*C*Cd3C27C 1C 1C 1Cj0)C	_.Cj0)Cj0)Cj0)Cj0)C2C	_.Cxn'C	_.C
=Co(CJ2Co(Co)Cd3C2;C2C2Co'Co(Co)CJ2Co)Co*Cd3C >CJ2Co+Cd3C/AC>C27C27C27C 1C 1C 1C 1C 1C 1C2Cj0)Cj0)Cj0)C	_.Co)CJ2Co)Co*Cd3C2;C2C2Co(C	_.Co*CJ2C	_.C	_.Cd3C >CJ2Co,Cd3C/AC'{BC2;C2;C2C2C2CJ2Co+Co,Cd3C >CJ2Co-Cd3CAC0FC?CJ2Cd3CBCICbz+Cbz,Cbz-Cbz.Cbz/Cbz0C,C'C'C'C'C+Cbz&Cbz&Cbz&CI)Cbz&Cbz&CŪ&Cbz&Cbz&C1C,C,C,C,C+C	/C'C'CI)C'C'C'C'C'C%2C+C+C+CI)Cbz&Cbz&CŪ&Cbz&Cbz&C3CI)CI)CŪ&Cbz&C'Cey4C'C(Cڀ5Cr5C1C1C1C1C,C	/C,C,C,C,C,C,C,C,C%2C	/C+C+C	/C
%?C	/C'C'C'C3CI)CI)C'C'C(Cey4C(C)Cڀ5C8C%2C%2C%2C+C+C+C+C+C+C3CI)CI)C'C	/C)Cey4C)C*Cڀ5C7<C3C3CI)CI)C*Cey4C*C+Cڀ5C9>Cey4C,Cڀ5CӐAC}s9Cr5Cr5Cr5Cr5C1C1C1C1C1C1C1C1C1C1C%2C,C,C,C,C	/C,C,C,C,C3C,C,C,C,C,Cey4C,C,Cڀ5C8C%2C%2C%2C+C	/C+C+C+C+C3C	/CI)C	/C
%?C*Cey4C*C+Cڀ5C7<C3C3CI)C*C+Cey4C+C,Cڀ5C9>Cey4C-Cڀ5CӐACW?C8C8C8C%2C%2C%2C%2C%2C%2C3C+C+C+C	/C+Cey4C+C,Cڀ5C7<C3C3C*C	/C,Cey4C	/C	/Cڀ5C9>Cey4C.Cڀ5CӐACBC7<Cbz<C3C3C3Cey4C-C.Cڀ5C9>Cey4C/Cڀ5CbzBCzFCbz@Cey4Cڀ5CbzCCMIC,C-C.C/C0C1CEO-C(C(C(C(C]F,C'C'C'C*C'C'C6(C'C'CY2CEO-CEO-CEO-CEO-C]F,C	U0C(C(C*C(C(C6(C(C(C3C]F,C]F,C]F,C*C'C'C6(C'C'C4C*C*C6(C'Cb(C5C6(Cb)Cʠ6C6CY2CY2CY2CY2CEO-C	U0CEO-CEO-CEO-CEO-CEO-CEO-CEO-CEO-C3C	U0C]F,C]F,C	U0C
@@C	U0C6(C(C(C4C*C*C6(C(Cb)C5Cb)Cb*Cʠ6C :C3C3C3C]F,C]F,C]F,C]F,C]F,C]F,C4C*C*C6(C	U0Cb*C5Cb*Cb+Cʠ6C=C4C4C*C*Cb+C5Cb+Cb,Cʠ6C,?C5Cb-Cʠ6CeBC&:C6C6C6C6CY2CY2CY2CY2CY2CY2CY2CY2CY2CY2C3CEO-CEO-CEO-CEO-C	U0CEO-CEO-CEO-CEO-C4CEO-CEO-CEO-CEO-CEO-C5CEO-CEO-Cʠ6C :C3C3C3C]F,C	U0C]F,C]F,C]F,C]F,C4C	U0C*C	U0C
@@Cb+C5Cb+Cb,Cʠ6C=C4C4C*Cb+Cb,C5Cb,Cb-Cʠ6C,?C5Cb.Cʠ6CeBC?C :C :C :C3C3C3C3C3C3C4C]F,C]F,C]F,C	U0Cb,C5Cb,Cb-Cʠ6C=C4C4Cb+C	U0Cb-C5C	U0C	U0Cʠ6C,?C5Cb/Cʠ6CBC?CC=C=C4C4C4C5Cb.Cb/Cʠ6C?C5Cb0Cʠ6CCCFCAC5Cʠ6CDC,JC-C.C/C0C1C2C/C*C*C*C*C .C(C(C(CO,C(C(CP*C(C(Cr3C/C/C/C/C .C	62C*C*CO,C*C*CP*C*C*C24C .C .C .CO,C(C(CP*C(C(C5CO,CO,CP*C(C)Cj7CP*C*C8C}s7Cr3Cr3Cr3Cr3C/C	62C/C/C/C/C/C/C/C/C24C	62C .C .C	62C
"xAC	62CP*C*C*C5CO,CO,CP*C*C*Cj7C*C+C8C;C24C24C24C .C .C .C .C .C .C5CO,CO,CP*C	62C+Cj7C+C,C8C=C5C5CO,CO,CO,Cj7C,C-C8C @Cj7C.C8CBC;C}s7C}s7C}s7C}s7Cr3Cr3Cr3Cr3Cr3Cr3Cr3Cr3Cr3Cr3C24C/C/C/C/C	62C/C/C/C/C5C/C/C/C/C/Cj7C/C/C8C;C24C24C24C .C	62C .C .C .C .C5C	62CO,C	62C
"xAC,Cj7C,C-C8C=C5C5CO,CO,C-Cj7C-C.C8C @Cj7C/C8CBCC@C;C;C;C24C24C24C24C24C24C5C .C .C .C	62C .Cj7C .C.C8C=C5C5CO,C	62C.Cj7C	62C	62C8C @Cj7C0C8CCCLCC=C>C5C5C5Cj7C/C0C8C@Cj7C1C8CDChGCBCj7C8CECi)JC$.C$/C$0C$1C$2C$3CY0CEO+CEO+CEO+CEO+C%/C$)C$)C$)C.C$)C$)Cŀ,C$)C"*C4CY0CY0CY0CY0C%/C	l3CEO+CEO+C.CEO+CEO+Cŀ,CEO+CEO+C5C%/C%/C%/C.C$)C$)Cŀ,C$)C^,*C27C.C.Cŀ,C^,*C^,+C7Cŀ,C^,,Cb19C&8C4C4C4C4CY0C	l3CY0CY0CY0CY0CY0CY0CY0CY0C5C	l3C%/C%/C	l3C
BC	l3Cŀ,CEO+CEO+C27C.C.Cŀ,CEO+C^,,C7Cŀ,C^,-Cb19CW<C5C5C5C%/C%/C%/C%/C%/C%/C27C.C.Cŀ,C	l3C^,-C7C^,-C^,.Cb19C'{>C27C27C.C.C^,.C7C^,.C^,/Cb19C@C7C^,0Cb19C9CCOQ<C&8C&8C&8C&8C4C4C4C4C4C4C4C4C4C4C5CY0CY0CY0CY0C	l3CY0CY0CY0CY0C27CY0CY0CY0CY0CY0C7CY0CY0Cb19CW<C5C5C5C%/C	l3C%/C%/C%/C%/C27C	l3C.C	l3C
BC^,.C7C^,.C^,/Cb19C'{>C27C27C.C^,.C^,/C7C^,/C^,0Cb19C@C7C^,1Cb19C$CC@CW<CW<CW<C5C5C5C5C5C5C27C%/C%/C%/C	l3C%/C7C%/C^,0Cb19C'{>C27C27C^,.C	l3C^,0C7C	l3C	l3Cb19C$@C7C^,2Cb19C$DCcDC$>C$?C27C27C27C7C^,1C^,2Cb19C$AC7C^,3Cb19C$ECAGC$CC7Cb19C$FC=JCV/CV0CV1CV2CV3CV4Cr1C-C-C-C-C0CV*CV*CV*C/CV*CV*CJ-CV*CC,C}s5Cr1Cr1Cr1Cr1C0C	4C-C-C/C-C-CJ-C-C-C 7C0C0C0C/CV*CV*CJ-CV*CC,C78C/C/CJ-Cx+Cx,C 9CJ-Cx-C1:C9C}s5C}s5C}s5C}s5Cr1C	4Cr1Cr1Cr1Cr1Cr1Cr1Cr1Cr1C 7C	4C0C0C	4C
΁CC	4CJ-C-C-C78C/C/CJ-C-Cx-C 9CJ-Cx.C1:C<C 7C 7C 7C0C0C0C0C0C0C78C/C/CJ-C	4Cx.C 9Cx.Cx/C1:C>C78C78C/C/C/C 9Cx/Cx0C1:C0AC 9Cx1C1:CVCCl=C9C9C9C9C}s5C}s5C}s5C}s5C}s5C}s5C}s5C}s5C}s5C}s5C 7Cr1Cr1Cr1Cr1C	4Cr1Cr1Cr1Cr1C78Cr1Cr1Cr1Cr1Cr1C 9Cr1Cr1C1:C<C 7C 7C 7C0C	4C0C0C0C0C78C	4C/C	4C
΁CCx/C 9Cx/Cx0C1:C>C78C78C/C/Cx0C 9Cx0Cx1C1:C0AC 9Cx2C1:CVDCMAC<C<CV<C 7C 7C 7C 7C 7C 7C78C0C0C0C	4C0C 9C0Cx1C1:C>C78C78C/C	4Cx1C 9C	4C	4C1:CVAC 9Cx3C1:CVECCDCV?CV@C78C78C78C 9Cx2Cx3C1:CVBC 9Cx4C1:CVFC%dGCVDC 9C1:CVGCJJC0C1C2C3C4C5C2CY.CY.CY.CY.C21C+C+C+C0C+C+Cey/C+Cd-C&6C2C2C2C2C21C	ݣ5CY.CY.C0CY.CY.Cey/CY.CY.C8C21C21C21C0C+C+Cey/C6+Cd-C9C0C0Cey/C6,Cd-C99Cey/C6.C/;COQ:C&6C&6C&6C&6C2C	ݣ5C2C2C2C2C2C2C2C2C8C	ݣ5C21C21C	ݣ5C
>\DC	ݣ5Cey/CY.CY.C9C0C0Cey/CY.C6.C99Cey/C6/C/;CC=C8C8C8C21C21C21C21C21C21C9C0C0Cey/C	ݣ5C6/C99C6/C60C/;C??C9C9C0C0C0C99C60C61C/;CzAC99C62C/;CDCI=COQ:COQ:COQ:COQ:C&6C&6C&6C&6C&6C&6C&6C&6C&6C&6C8C2C2C2C2C	ݣ5C2C2C2C2C9C2C2C2C2C2C99C2C2C/;CC=C8C8C8C21C	ݣ5C21C21C21C21C9C	ݣ5C0C	ݣ5C
>\DC60C99C60C61C/;C??C9C9C0C0C61C99C61C62C/;CzAC99C63C/;CECACC=CC=C=C8C8C8C8C8C8C9C21C21C21C	ݣ5C21C99C21C62C/;C??C9C9C0C	ݣ5C62C99C	ݣ5C	ݣ5C/;CBC99C64C/;CFCDC@CAC9C9C9C99C63C64C/;CCC99C65C/;CGCN|GCEC99C/;CHCVJC	J1C	J2C	J3C	J4C	J5C	J6C}s3Cr/Cr/Cr/Cr/C2C%,C%,C%,C1C	J,C	J,C0C	J,Cڀ/C7C}s3C}s3C}s3C}s3C2C	Ҁ6Cr/Cr/C1Cr/Cr/C0Cr/Cr/CW9C2C2C2C1C%,C%,C0C',Cڀ/C9C1C1C0C'-Cڀ/C,:C0C'/CӐ;Cl;C7C7C7C7C}s3C	Ҁ6C}s3C}s3C}s3C}s3C}s3C}s3C}s3C}s3CW9C	Ҁ6C2C2C	Ҁ6C
EC	Ҁ6C0Cr/Cr/C9C1C1C0Cr/C'/C,:C0C'0CӐ;C=CW9CW9CW9C2C2C2C2C2C2C9C1C1C0C	Ҁ6C'0C,:C'0C'1CӐ;CL?C9C9C1C1C1C,:C'1C'2CӐ;CAC,:C'3CӐ;C	JECv=Cl;Cl;Cl;Cl;C7C7C7C7C7C7C7C7C7C7CW9C}s3C}s3C}s3C}s3C	Ҁ6C}s3C}s3C}s3C}s3C9C}s3C}s3C}s3C}s3C}s3C,:C}s3C}s3CӐ;C=CW9CW9CW9C2C	Ҁ6C2C2C2C2C9C	Ҁ6C1C	Ҁ6C
EC'1C,:C'1C'2CӐ;CL?C9C9C1C1C'2C,:C'2C'3CӐ;C	JBC,:C'4CӐ;C	JFCAC=C=C	J>CW9CW9CW9CW9CW9CW9C9C2C2C2C	Ҁ6C2C,:C2C'3CӐ;CL?C9C9C1C	Ҁ6C'3C,:C	Ҁ6C	Ҁ6CӐ;C	JCC,:C'5CӐ;C	JGC6DC	JAC	JBC9C9C9C,:C'4C'5CӐ;C	JDC,:C'6CӐ;C	JHCGC	JFC,:CӐ;C	JIC\JC1C2C3C4C5C6C&4C0C0C0C0C 4C-C-C-C23C,C,Cj2C,Cʠ0COQ8C&4C&4C&4C&4C 4C	y7C0C0C23C0C0Cj2C0C0C9C 4C 4C 4C23C-C-Cj2C-Cʠ0C'{:C23C23Cj2C.Cʠ0C ;Cj2C0Ce<CI;COQ8COQ8COQ8COQ8C&4C	y7C&4C&4C&4C&4C&4C&4C&4C&4C9C	y7C 4C 4C	y7C
EC	y7Cj2C0C0C'{:C23C23Cj2C0C0C ;Cj2C1Ce<CM>C9C9C9C 4C 4C 4C 4C 4C 4C'{:C23C23Cj2C	y7C1C ;Cj2C2Ce<Cc@C'{:C'{:C23C23C23C ;C2C3Ce<ChBC ;C4Ce<CEC>CI;CI;CI;CI;COQ8COQ8COQ8COQ8COQ8COQ8COQ8COQ8COQ8COQ8C9C&4C&4C&4C&4C	y7C&4C&4C&4C&4C'{:C&4C&4C&4C&4C&4C ;C&4C&4Ce<CM>C9C9C9C 4C	y7C 4C 4C 4C 4C'{:C	y7C23C	y7C
EC2C ;C2C3Ce<Cc@C'{:C'{:C23C23C3C ;C3C4Ce<CBC ;C5Ce<CFC,'BCM>CM>C>C9C9C9C9C9C9C'{:C 4C 4C 4C	y7C 4C ;C 4C4Ce<Cc@C'{:C'{:C23C	y7C4C ;C	y7C	y7Ce<CCC ;C6Ce<CGCYECACBC'{:C'{:C'{:C ;C5C6Ce<CDC ;C7Ce<CHCGCFC ;Ce<CICJCSy2CSy3CSy4CSy5CSy6CSy7C5C}s1C}s1C}s1C}s1C5C2.C2.C2.C74Cr-Cr-C2Cr-C2Cl9C5C5C5C5C5C	=8C}s1C}s1C74C}s1C}s1C2C}s1C2CC:C5C5C5C74C2.C2.C2C2.C2C:C74C74C2C8/C2C;C2C2C<Cv;Cl9Cl9Cl9Cl9C5C	=8C5C5C5C5C5C5C5C5CC:C	=8C5C5C	=8C
bFC	=8C2C}s1C2C:C74C74C2C}s1C2C;C2C82C<C>CC:CC:CC:C5C5C5C5C5C5C:C74C74C2C	=8C82C;C2C83C<CC@C:C:C74C74C74C;C83C84C<CSyBC;C85C<CSyFC>Cv;Cv;Cv;Cv;Cl9Cl9Cl9Cl9Cl9Cl9Cl9Cl9Cl9Cl9CC:C5C5C5C5C	=8C5C5C5C5C:C5C5C5C5C5C;C5C5C<C>CC:CC:CC:C5C	=8C5C5C5C5C:C	=8C74C	=8C
bFC83C;C83C84C<CC@C:C:C74C74C84C;C84C85C<CSyCC;C86C<CSyGCq\BC>C>CSy?CC:CC:CC:CC:CC:CC:C:C5C5C5C	=8C5C;C5C85C<CC@C:C:C74C	=8C85C;C	=8C	=8C<CSyDC;C87C<CSyHC2ECSyBCSyCC:C:C:C;C86C87C<CSyEC;C88C<CSyICGCSyGC;C<CSyJCSyKC2C3C4C5C6C7COQ6C&2C&2C&2C&2CW6C/C/C/C5C.C.C 4C.Cb13CI9COQ6COQ6COQ6COQ6CW6C	x8C&2C&2C5C&2C&2C 4C&2Cb13C:CW6CW6CW6C5C/C/C 4C/Cb13C?;C5C5C 4C֌0Cb13C0<C 4Cb13C9=C<CI9CI9CI9CI9COQ6C	x8COQ6COQ6COQ6COQ6COQ6COQ6COQ6COQ6C:C	x8CW6CW6C	x8C
ZFC	x8C 4C&2Cb13C?;C5C5C 4C&2Cb13C0<C 4C֌3C9=C>C:C:C:CW6CW6CW6CW6CW6CW6C?;C5C5C 4C	x8C֌3C0<C 4C֌4C9=C@C?;C?;C5C5C5C0<C֌4C֌5C9=CBC0<C֌6C9=CFC?C<C<C<C<CI9CI9CI9CI9CI9CI9CI9CI9CI9CI9C:COQ6COQ6COQ6COQ6C	x8COQ6COQ6COQ6COQ6C?;COQ6COQ6COQ6COQ6COQ6C0<COQ6COQ6C9=C>C:C:C:CW6C	x8CW6CW6CW6CW6C?;C	x8C5C	x8C
ZFC֌4C0<C֌4C֌5C9=C@C?;C?;C5C5C֌5C0<C֌5C֌6C9=CCC0<C֌7C9=CGC}zBC>C>C?C:C:C:C:C:C:C?;CW6CW6CW6C	x8CW6C0<CW6C֌6C9=C@C?;C?;C5C	x8C֌6C0<C	x8C	x8C9=CDC0<C֌8C9=CHC}HECBCCC?;C?;C?;C0<C֌7C֌8C9=CEC0<C֌9C9=CICGCGC0<C9=CJCKCU3CU4CU5CU6CU7CU8Cl7C3C3C3C3C6C 1C 1C 1C5C}s/C}s/C94C}s/C14Cv9Cl7Cl7Cl7Cl7C6C	}9C3C3C5C3C3C94C3C14CM;C6C6C6C5C 1C 1C94C 1C14CL;C5C5C94CuI1C14Cz<C94C14C8=C<Cv9Cv9Cv9Cv9Cl7C	}9Cl7Cl7Cl7Cl7Cl7Cl7Cl7Cl7CM;C	}9C6C6C	}9C
uPGC	}9C94C3C14CL;C5C5C94C3C14Cz<C94CuI4C8=C,'?CM;CM;CM;C6C6C6C6C6C6CL;C5C5C94C	}9CuI4Cz<C94CuI5C8=C6@CL;CL;C5C5C5Cz<CuI5CuI6C8=CUCCz<CuI7C8=CUGC[?C<C<C<C<Cv9Cv9Cv9Cv9Cv9Cv9Cv9Cv9Cv9Cv9CM;Cl7Cl7Cl7Cl7C	}9Cl7Cl7Cl7Cl7CL;Cl7Cl7Cl7Cl7Cl7Cz<Cl7Cl7C8=C,'?CM;CM;CM;C6C	}9C6C6C6C6CL;C	}9C5C	}9C
uPGCuI5Cz<CuI5CuI6C8=C6@CL;CL;C5C5CuI6Cz<CuI6CuI7C8=CUDCz<CuI8C8=CUHCBC,'?CU?CU@CM;CM;CM;CM;CM;CM;CL;C6C6C6C	}9C6Cz<C6CuI7C8=CUACL;CL;C5C	}9CuI7Cz<C	}9C	}9C8=CUECz<CuI9C8=CUIC_VECUCCUDCL;CL;CL;Cz<CuI8CuI9C8=CUFCz<CuI:C8=CUJCGCUHCz<C8=CUKCULC3C4C5C6C7C8CI7COQ4COQ4COQ4COQ4CC7C2C2C2C'{6C&0C&0C,5C&0C/5C:CI7CI7CI7CI7CC7C	:COQ4COQ4C'{6COQ4COQ4C,5COQ4C/5C;CC7CC7CC7C'{6C2C2C,5C2C/5Cc<C'{6C'{6C,5C	1C/5C<C,5C/5C=C=C:C:C:C:CI7C	:CI7CI7CI7CI7CI7CI7CI7CI7C;C	:CC7CC7C	:C
GC	:C,5COQ4C/5Cc<C'{6C'{6C,5COQ4C/5C<C,5C/5C=Cq\?C;C;C;CC7CC7CC7CC7CC7CC7Cc<C'{6C'{6C,5C	:C/5C<C,5C	5C=CYACc<Cc<C'{6C'{6C'{6C<C	5C	6C=CCC<C	7C=CGCT?C=C=C=C=C:C:C:C:C:C:C:C:C:C:C;CI7CI7CI7CI7C	:CI7CI7CI7CI7Cc<CI7CI7CI7CI7CI7C<CI7CI7C=Cq\?C;C;C;CC7C	:CC7CC7CC7CC7Cc<C	:C'{6C	:C
GC	5C<C	5C	6C=CYACc<Cc<C'{6C'{6C	6C<C	6C	7C=CDC<C	8C=CHC?BCq\?C?C@C;C;C;C;C;C;Cc<CC7CC7CC7C	:CC7C<CC7C	7C=CACc<Cc<C'{6C	:C	7C<C	:C	:C=CEC<C	9C=CICbECCCDCc<Cc<Cc<C<C	8C	9C=CFC<C	:C=CJCGCHC<C=CKCLCv3Cl5Cv5Cv6Cv7Cv8Cv7Cl5Cl5Cl5Cl5C7CW3CW3CW3C6C1C1C 6C1CӐ5C:Cv7Cv7Cv7Cv7C7C	s:Cl5Cl5C6Cl5Cl5C 6Cl5CӐ5C;C7C7C7C6CW3CW3C 6CW3CӐ5CC<C6C6C 6C`2CӐ5Ch=C 6CӐ5CM=C[=C:C:C:C:Cv7C	s:Cv7Cv7Cv7Cv7Cv7Cv7Cv7Cv7C;C	s:C7C7C	s:C
GC	s:C 6Cl5CӐ5CC<C6C6C 6Cl5CӐ5Ch=C 6CӐ5CM=C}z?C;C;C;C7C7C7C7C7C7CC<C6C6C 6C	s:CӐ5Ch=C 6C`6CM=C2ACC<CC<C6C6C6Ch=C`6C`7CM=CvCCh=C`8CM=CvGC?C[=C[=C[=C[=C:C:C:C:C:C:C:C:C:C:C;Cv7Cv7Cv7Cv7C	s:Cv7Cv7Cv7Cv7CC<Cv7Cv7Cv7Cv7Cv7Ch=Cv7Cv7CM=C}z?C;C;C;C7C	s:C7C7C7C7CC<C	s:C6C	s:C
GC`6Ch=C`6C`7CM=C2ACC<CC<C6C6C`7Ch=C`7C`8CM=CvDCh=C`9CM=CvHCBC}z?Cv?Cv@C;C;C;C;C;C;CC<C7C7C7C	s:C7Ch=C7C`8CM=CvACC<CC<C6C	s:C`8Ch=C	s:C	s:CM=CvECh=C`:CM=CvICkECvCCvDCC<CC<CC<Ch=C`9C`:CM=CvFCh=C`;CM=CvJCvGCvHCh=CM=CvKCvLC)4CI5C)6C)7C)8C)9C8CI5CI5CI5CI5CM8C3C3C3C?7COQ2COQ2C6COQ2Ce6C;C8C8C8C8CM8C	:CI5CI5C?7CI5CI5C6CI5Ce6C,'<CM8CM8CM8C?7C3C3C6C3Ce6C<C?7C?7C6C72Ce6CA=C6Ce6C,>CT=C;C;C;C;C8C	:C8C8C8C8C8C8C8C8C,'<C	:CM8CM8C	:C
-HC	:C6CI5Ce6C<C?7C?7C6CI5Ce6CA=C6Ce6C,>C?C,'<C,'<C,'<CM8CM8CM8CM8CM8CM8C<C?7C?7C6C	:Ce6CA=C6C76C,>C}HAC<C<C?7C?7C?7CA=C76C77C,>C)DCA=C78C,>C)HC?CT=CT=CT=CT=C;C;C;C;C;C;C;C;C;C;C,'<C8C8C8C8C	:C8C8C8C8C<C8C8C8C8C8CA=C8C8C,>C?C,'<C,'<C,'<CM8C	:CM8CM8CM8CM8C<C	:C?7C	:C
-HC76CA=C76C77C,>C}HAC<C<C?7C?7C77CA=C77C78C,>C)ECA=C79C,>C)ICBC?C)@C)AC,'<C,'<C,'<C,'<C,'<C,'<C<CM8CM8CM8C	:CM8CA=CM8C78C,>C)BC<C<C?7C	:C78CA=C	:C	:C,>C)FCA=C7:C,>C)JCrEC)DC)EC<C<C<CA=C79C7:C,>C)GCA=C7;C,>C)KC)HC)ICA=C,>C)LC)MCT4Cv5CT6CT7CT8CT9C8Cv5Cv5Cv5Cv5C8CC4CC4CC4CL7Cl3Cl3C07Cl3C6C[;C8C8C8C8C8C	.;Cv5Cv5CL7Cv5Cv5C07Cv5C6Cq\<C8C8C8CL7CC4CC4C07CC4C6C6<CL7CL7C07C0C3C6C%d=C07C6Ci)>C=C[;C[;C[;C[;C8C	.;C8C8C8C8C8C8C8C8Cq\<C	.;C8C8C	.;C
YHC	.;C07Cv5C6C6<CL7CL7C07Cv5C6C%d=C07C6Ci)>C??Cq\<Cq\<Cq\<C8C8C8C8C8C8C6<CL7CL7C07C	.;C6C%d=C07C0C7Ci)>C_VAC6<C6<CL7CL7CL7C%d=C0C7C0C8Ci)>CTDC%d=C0C9Ci)>CTHC?C=C=C=C=C[;C[;C[;C[;C[;C[;C[;C[;C[;C[;Cq\<C8C8C8C8C	.;C8C8C8C8C6<C8C8C8C8C8C%d=C8C8Ci)>C??Cq\<Cq\<Cq\<C8C	.;C8C8C8C8C6<C	.;CL7C	.;C
YHC0C7C%d=C0C7C0C8Ci)>C_VAC6<C6<CL7CL7C0C8C%d=C0C8C0C9Ci)>CTEC%d=C0C:Ci)>CTICnBC??CT@CTACq\<Cq\<Cq\<Cq\<Cq\<Cq\<C6<C8C8C8C	.;C8C%d=C8C0C9Ci)>CTBC6<C6<CL7C	.;C0C9C%d=C	.;C	.;Ci)>CTFC%d=C0C;Ci)>CTJCvECTDCTEC6<C6<C6<C%d=C0C:C0C;Ci)>CTGC%d=C0C<Ci)>CTKCTHCTIC%d=C0C>CTLCTMC~4C6C~6C~7C~8C~9C9C6C6C6C6C8C4C4C4Cc8CI3CI3Cz7CI3C97CT;C9C9C9C9C8C	x;C6C6Cc8C6C6Cz7C6C97C}z<C8C8C8Cc8C4C4Cz7C4C97CY=Cc8Cc8Cz7C3C97CN|=Cz7C97C=>C=CT;CT;CT;CT;C9C	x;C9C9C9C9C9C9C9C9C}z<C	x;C8C8C	x;C
RHC	x;Cz7C6C97CY=Cc8Cc8Cz7C6C97CN|=Cz7C97C=>C?C}z<C}z<C}z<C8C8C8C8C8C8CY=Cc8Cc8Cz7C	x;C97CN|=Cz7C7C=>CbACY=CY=Cc8Cc8Cc8CN|=Cz7C8C=>C~DCN|=C9C=>C~HC_?C=C=C=C=CT;CT;CT;CT;CT;CT;CT;CT;CT;CT;C}z<C9C9C9C9C	x;C9C9C9C9CY=C9C9C9C9C9CN|=C9C9C=>C?C}z<C}z<C}z<C8C	x;C8C8C8C8CY=C	x;Cc8C	x;C
RHC7CN|=Cz7C8C=>C~ACY=CY=Cc8Cc8C8CN|=C8C9C=>C~ECN|=C:C=>C~IC]BC?C~@C~AC}z<C}z<C}z<C}z<C}z<C}z<CY=C8C8C8C	x;C8CN|=C8C9C=>C~BCY=CY=Cc8C	x;C9CN|=C	x;C	x;C=>C~FCN|=C;C=>C~JCzEC~DC~ECY=CY=CY=CN|=C:C;C=>C~GCN|=C<C=>C~KC~HC~IC=C>C~LC~MC4C6C6C7C8C9C[9C6C6C6C6C,'9CM5CM5CM5CC8Cv3Cv3C7Cv3C87C;C[9C[9C[9C[9C,'9C	é;C6C6CC8C6C6C7C6C87C<C,'9C,'9C,'9CC8CM5CM5C7CM5C87C2=CC8CC8C7Cv3C87C=C7C87CJ>C=C;C;C;C;C[9C	é;C[9C[9C[9C[9C[9C[9C[9C[9C<C	é;C,'9C,'9C	é;C
HC	é;C7C6C87C2=CC8CC8C7C6C87C=C7C87CJ>C?C<C<C<C,'9C,'9C,'9C,'9C,'9C,'9C2=CC8CC8C7C	é;C87C=C7C7CJ>CkAC2=C2=CC8CC8CC8C=C7C8CJ>CDC=C9CJ>CHC8 @C=C=C=C=C;C;C;C;C;C;C;C;C;C;C<C[9C[9C[9C[9C	é;C[9C[9C[9C[9C2=C[9C[9C[9C[9C[9C=C[9C[9CJ>C?C<C<C<C,'9C	é;C,'9C,'9C,'9C,'9C2=C	é;CC8C	é;C
HC7C=C7C8CJ>CAC2=C2=CC8CC8C8C=C8C9CJ>CEC=C:CJ>CIC#BC?C@CAC<C<C<C<C<C<C2=C,'9C,'9C,'9C	é;C,'9C=C,'9C9CJ>CBC2=C2=CC8C	é;C9C=C	é;C	é;CJ>CFC=C;CJ>CJC0}ECDCEC2=C2=C2=C=C:C;CJ>CGC=C<CJ>CKCHCIC=C>CLCMCM4C7CM6CM7CM8CM9CT9C7C7C7C7Cq\9C5C5C5C8C4C4Ch8C4C7C;CT9CT9CT9CT9Cq\9C	0;C7C7C8C7C7Ch8C7C7C?<Cq\9Cq\9Cq\9C8C5C5Ch8C5C7C}H=C8C8Ch8C4C7C=Ch8C7CV>C_=C;C;C;C;CT9C	0;CT9CT9CT9CT9CT9CT9CT9CT9C?<C	0;Cq\9Cq\9C	0;C
HHC	0;Ch8C7C7C}H=C8C8Ch8C7C7C=Ch8C7CV>Cn?C?<C?<C?<Cq\9Cq\9Cq\9Cq\9Cq\9Cq\9C}H=C8C8Ch8C	0;C7C=Ch8C8CV>CrAC}H=C}H=C8C8C8C=Ch8C9CV>CMDC=C:CV>CMHC
@C_=C_=C_=C_=C;C;C;C;C;C;C;C;C;C;C?<CT9CT9CT9CT9C	0;CT9CT9CT9CT9C}H=CT9CT9CT9CT9CT9C=CT9CT9CV>Cn?C?<C?<C?<Cq\9C	0;Cq\9Cq\9Cq\9Cq\9C}H=C	0;C8C	0;C
HHC8C=Ch8C9CV>CMAC}H=C}H=C8C8C9C=C9C:CV>CMEC=C;CV>CMICBCn?CM@CMAC?<C?<C?<C?<C?<C?<C}H=Cq\9Cq\9Cq\9C	0;Cq\9C=Cq\9C:CV>CMBC}H=C}H=C8C	0;C:C=C	0;C	0;CV>CMFC=C<CV>CMJC~ECMDCMEC}H=C}H=C}H=C=C;C<CV>CMGC=C=CV>CMKCMHCMIC>C?CMLCMMC4C[7C6C7C8C9C9C[7C[7C[7C[7C}z9C5C5C5C68C4C4CA8C4CM7C;C9C9C9C9C}z9C	\;C[7C[7C68C[7C[7CA8C[7CM7C<C}z9C}z9C}z9C68C5C5CA8C5CM7C_V=C68C68CA8C4CM7C=CA8CM7C\>C8 >C;C;C;C;C9C	\;C9C9C9C9C9C9C9C9C<C	\;C}z9C}z9C	\;C
HC	\;CA8C[7CM7C_V=C68C68CA8C[7CM7C=CA8CM7C\>C]?C<C<C<C}z9C}z9C}z9C}z9C}z9C}z9C_V=C68C68CA8C	\;CM7C=CA8CQ18C\>CvAC_V=C_V=C68C68C68C=CA8CQ19C\>CDC=CQ1:C\>CHC.@C8 >C8 >C8 >C8 >C;C;C;C;C;C;C;C;C;C;C<C9C9C9C9C	\;C9C9C9C9C_V=C9C9C9C9C9C=C9C9C\>C]?C<C<C<C}z9C	\;C}z9C}z9C}z9C}z9C_V=C	\;C68C	\;C
HCQ18C=CA8CQ19C\>CAC_V=C_V=C68C68CQ19C=CQ19CQ1:C\>CEC=CQ1;C\>CICBC]?C@CAC<C<C<C<C<C<C_V=C}z9C}z9C}z9C	\;C}z9C=C}z9CQ1:C\>CBC_V=C_V=C68C	\;CQ1:C=C	\;C	\;C\>CFC=CQ1<C\>CJCyECDCEC_V=C_V=C_V=C=CQ1;CQ1<C\>CGC=CQ1=C\>CKCHCICQ1>CQ1?CLCMC5CT7C6C7C8C9C9CT7CT7CT7CT7C9C,'6C,'6C,'6CY9C5C5C%d8C5C,8C_;C9C9C9C9C9C	<CT7CT7CY9CT7CT7C%d8CT7C,8C<C9C9C9CY9C,'6C,'6C%d8C,'6C,8Cb=CY9CY9C%d8C5C,8C=C%d8C,8Ca>C
>C_;C_;C_;C_;C9C	<C9C9C9C9C9C9C9C9C<C	<C9C9C	<C
HC	<C%d8CT7C,8Cb=CY9CY9C%d8CT7C,8C=C%d8C,8Ca>C#?C<C<C<C9C9C9C9C9C9Cb=CY9CY9C%d8C	<C,8C=C%d8CP8Ca>CzACb=Cb=CY9CY9CY9C=C%d8CP9Ca>CDC=CP:Ca>CHC@C
>C
>C
>C
>C_;C_;C_;C_;C_;C_;C_;C_;C_;C_;C<C9C9C9C9C	<C9C9C9C9Cb=C9C9C9C9C9C=C9C9Ca>C#?C<C<C<C9C	<C9C9C9C9Cb=C	<CY9C	<C
HCP8C=C%d8CP9Ca>CACb=Cb=CY9CY9CP9C=CP9CP:Ca>CEC=CP;Ca>CIC(BC#?C@CAC<C<C<C<C<C<Cb=C9C9C9C	<C9C=C9CP:Ca>CBCb=Cb=CY9C	<CP:C=C	<C	<Ca>CFC=CP<Ca>CJCրECDCECb=Cb=Cb=C=CP;CP<Ca>CGC=CP=Ca>CKCHCICP>CP?CLCMC[5C7C6C7C8C9C9C7C7C7C7C?9Cq\6Cq\6Cq\6C29C[5C[5CN|8C[5Ci)8C8 <C9C9C9C9C?9C	"<C7C7C29C7C7CN|8C7Ci)8Cn<C?9C?9C?9C29Cq\6Cq\6CN|8Cq\6Ci)8Ck=C29C29CN|8C[5Ci)8C=CN|8Ci)8C2e>C.>C8 <C8 <C8 <C8 <C9C	"<C9C9C9C9C9C9C9C9Cn<C	"<C?9C?9C	"<C
HC	"<CN|8C7Ci)8Ck=C29C29CN|8C7Ci)8C=CN|8Ci)8C2e>C?Cn<Cn<Cn<C?9C?9C?9C?9C?9C?9Ck=C29C29CN|8C	"<Ci)8C=CN|8Ci8C2e>C0}ACk=Ck=C29C29C29C=CN|8Ci9C2e>CDC=Ci:C2e>CHC@C.>C.>C.>C.>C8 <C8 <C8 <C8 <C8 <C8 <C8 <C8 <C8 <C8 <Cn<C9C9C9C9C	"<C9C9C9C9Ck=C9C9C9C9C9C=C9C9C2e>C?Cn<Cn<Cn<C?9C	"<C?9C?9C?9C?9Ck=C	"<C29C	"<C
HCi8C=CN|8Ci9C2e>CACk=Ck=C29C29Ci9C=Ci9Ci:C2e>CEC=Ci;C2e>CIC< CC?C@CACn<Cn<Cn<Cn<Cn<Cn<Ck=C?9C?9C?9C	"<C?9C=C?9Ci:C2e>CBCk=Ck=C29C	"<Ci:C=C	"<C	"<C2e>CFC=Ci<C2e>CJC[ECDCECk=Ck=Ck=C=Ci;Ci<C2e>CGC=Ci=Ci>CKCHCICi>Ci?CLCMCT5C7C6C7C8C9C_9C7C7C7C7C9C}z6C}z6C}z6C}H9CT5CT5C8CT5C=8C
<C_9C_9C_9C_9C9C	2<C7C7C}H9C7C7C8C7C=8C]<C9C9C9C}H9C}z6C}z6C8C}z6C=8Cr=C}H9C}H9C8CT5C=8C=C8C=8C0g>C>C
<C
<C
<C
<C_9C	2<C_9C_9C_9C_9C_9C_9C_9C_9C]<C	2<C9C9C	2<C
HC	2<C8C7C=8Cr=C}H9C}H9C8C7C=8C=C8C=8C0g>C?C]<C]<C]<C9C9C9C9C9C9Cr=C}H9C}H9C8C	2<C=8C=C8C|8C0g>C~ACr=Cr=C}H9C}H9C}H9C=C8C|9C0g>CDC=C|:C0g>CHC @C>C>C>C>C
<C
<C
<C
<C
<C
<C
<C
<C
<C
<C]<C_9C_9C_9C_9C	2<C_9C_9C_9C_9Cr=C_9C_9C_9C_9C_9C=C_9C_9C0g>C?C]<C]<C]<C9C	2<C9C9C9C9Cr=C	2<C}H9C	2<C
HC|8C=C8C|9C0g>CACr=Cr=C}H9C}H9C|9C=C|9C|:C0g>CEC=C|;C0g>CICUCC?C@CAC]<C]<C]<C]<C]<C]<Cr=C9C9C9C	2<C9C=C9C|:C0g>CBCr=Cr=C}H9C	2<C|:C=C	2<C	2<C0g>CFC=C|<C0g>CJCECDCECr=Cr=Cr=C=C|;C|<C0g>CGC=C|=C|>CKCHCIC|>C|?CLCMC5C7C6C7C8C9C8 :C7C7C7C7C9C6C6C6C_V9C5C5C8C5CJ8C.<C8 :C8 :C8 :C8 :C9C	V?<C7C7C_V9C7C7C8C7CJ8C#<C9C9C9C_V9C6C6C8C6CJ8Cv=C_V9C_V9C8C5CJ8C=C8CJ8Ch>C>C.<C.<C.<C.<C8 :C	V?<C8 :C8 :C8 :C8 :C8 :C8 :C8 :C8 :C#<C	V?<C9C9C	V?<C
$HC	V?<C8C7CJ8Cv=C_V9C_V9C8C7CJ8C=C8CJ8Ch>C(?C#<C#<C#<C9C9C9C9C9C9Cv=C_V9C_V9C8C	V?<CJ8C=C8C8Ch>CyACv=Cv=C_V9C_V9C_V9C=C8C9Ch>CDC=C:Ch>CHC"@C>C>C>C>C.<C.<C.<C.<C.<C.<C.<C.<C.<C.<C#<C8 :C8 :C8 :C8 :C	V?<C8 :C8 :C8 :C8 :Cv=C8 :C8 :C8 :C8 :C8 :C=C8 :C8 :Ch>C(?C#<C#<C#<C9C	V?<C9C9C9C9Cv=C	V?<C_V9C	V?<C
$HC8C=C8C9Ch>CACv=Cv=C_V9C_V9C9C=C9C:Ch>CEC=C;Ch>CICTCC(?C@CAC#<C#<C#<C#<C#<C#<Cv=C9C9C9C	V?<C9C=C9C:Ch>CBCv=Cv=C_V9C	V?<C:C=C	V?<C	V?<Ch>CFC=C<Ch>CJCECDCECv=Cv=Cv=C=C;C<Ch>CGC=C=C>CKCHCIC>C?CLCMC5C_7C6C7C8C9C
:C_7C_7C_7C_7Cn9C?6C?6C?6Cb9C5C5C8C5CV8C<C
:C
:C
:C
:Cn9C	I<C_7C_7Cb9C_7C_7C8C_7CV8C<Cn9Cn9Cn9Cb9C?6C?6C8C?6CV8Cz=Cb9Cb9C8C5CV8C4=C8CV8C%i>C >C<C<C<C<C
:C	I<C
:C
:C
:C
:C
:C
:C
:C
:C<C	I<Cn9Cn9C	I<C
HC	I<C8C_7CV8Cz=Cb9Cb9C8C_7CV8C4=C8CV8C%i>C< @C<C<C<Cn9Cn9Cn9Cn9Cn9Cn9Cz=Cb9Cb9C8C	I<CV8C4=C8C8C%i>CրACz=Cz=Cb9Cb9Cb9C4=C8C9C%i>CDC4=C:C%i>CHC#@C >C >C >C >C<C<C<C<C<C<C<C<C<C<C<C
:C
:C
:C
:C	I<C
:C
:C
:C
:Cz=C
:C
:C
:C
:C
:C4=C
:C
:C%i>C< @C<C<C<Cn9C	I<Cn9Cn9Cn9Cn9Cz=C	I<Cb9C	I<C
HC8C4=C8C9C%i>CACz=Cz=Cb9Cb9C9C4=C9C:C%i>CEC4=C;C%i>CICCC< @C@CAC<C<C<C<C<C<Cz=Cn9Cn9Cn9C	I<Cn9C4=Cn9C:C%i>CBCz=Cz=Cb9C	I<C:C4=C	I<C	I<C%i>CFC4=C<C%i>CJCECDCECz=Cz=Cz=C4=C;C<C%i>CGC4=C=C>CKCHCIC>C?CLCMC5C8 8C 7C 8C 9C :C.:C8 8C8 8C8 8C8 8C]9C6C6C6Ck9C5C5C8C5C\8C<C.:C.:C.:C.:C]9C	P<C8 8C8 8Ck9C8 8C8 8C8C8 8C\8C<C]9C]9C]9Ck9C6C6C8C6C\8C0}=Ck9Ck9C8C5C\8C=C8C\8Ci>C">C<C<C<C<C.:C	P<C.:C.:C.:C.:C.:C.:C.:C.:C<C	P<C]9C]9C	P<C
<HC	P<C8C8 8C\8C0}=Ck9Ck9C8C8 8C\8C=C8C\8Ci>CU@C<C<C<C]9C]9C]9C]9C]9C]9C0}=Ck9Ck9C8C	P<C\8C=C8C8Ci>C[AC0}=C0}=Ck9Ck9Ck9C=C8C9Ci>C EC=C:Ci>C IC$@C">C">C">C">C<C<C<C<C<C<C<C<C<C<C<C.:C.:C.:C.:C	P<C.:C.:C.:C.:C0}=C.:C.:C.:C.:C.:C=C.:C.:Ci>CU@C<C<C<C]9C	P<C]9C]9C]9C]9C0}=C	P<Ck9C	P<C
<HC8C=C8C9Ci>C BC0}=C0}=Ck9Ck9C9C=C9C:Ci>C FC=C;Ci>C JCCCU@C AC BC<C<C<C<C<C<C0}=C]9C]9C]9C	P<C]9C=C]9C:Ci>C CC0}=C0}=Ck9C	P<C:C=C	P<C	P<Ci>C GC=C<Ci>C KCEC EC FC0}=C0}=C0}=C=C;C<Ci>C HC=C=C>C LC IC JC>C?C MC NC_5C
8C{7C{8C{9C{:C:C
8C
8C
8C
8C#9C6C6C6Cr9C_5C_5C8C_5Ca8C <C:C:C:C:C#9C	V<C
8C
8Cr9C
8C
8C8C
8Ca8C(<C#9C#9C#9Cr9C6C6C8C6Ca8C~=Cr9Cr9C8C_5Ca8C=C8Ca8Ci>C#>C <C <C <C <C:C	V<C:C:C:C:C:C:C:C:C(<C	V<C#9C#9C	V<C
HC	V<C8C
8Ca8C~=Cr9Cr9C8C
8Ca8C=C8Ca8Ci>CT@C(<C(<C(<C#9C#9C#9C#9C#9C#9C~=Cr9Cr9C8C	V<Ca8C=C8Cz8Ci>CAC~=C~=Cr9Cr9Cr9C=C8Cz9Ci>C{EC=Cz:Ci>C{IC~%@C#>C#>C#>C#>C <C <C <C <C <C <C <C <C <C <C(<C:C:C:C:C	V<C:C:C:C:C~=C:C:C:C:C:C=C:C:Ci>CT@C(<C(<C(<C#9C	V<C#9C#9C#9C#9C~=C	V<Cr9C	V<C
HCz8C=C8Cz9Ci>C{BC~=C~=Cr9Cr9Cz9C=Cz9Cz:Ci>C{FC=Cz;Ci>C{JCCC{@C{AC{BC(<C(<C(<C(<C(<C(<C~=C#9C#9C#9C	V<C#9C=C#9Cz:Ci>C{CC~=C~=Cr9C	V<Cz:C=C	V<C	V<Ci>C{GC=Cz<Ci>C{KCEC{EC{FC~=C~=C~=C=Cz;Cz<Ci>C{HC=Cz=Cz>C{LC{IC{JCz>Cz?C{MC{NC8 6C.8C7C8C9C:C:C.8C.8C.8C.8C9Cn6Cn6Cn6Cv9C8 6C8 6C8C8 6C2e8C"<C:C:C:C:C9C	Z<C.8C.8Cv9C.8C.8C8C.8C2e8C< =C9C9C9Cv9Cn6Cn6C8Cn6C2e8Cy=Cv9Cv9C8C8 6C2e8C=C8C2e8Ci>C$>C"<C"<C"<C"<C:C	Z<C:C:C:C:C:C:C:C:C< =C	Z<C9C9C	Z<C
HC	Z<C8C.8C2e8Cy=Cv9Cv9C8C.8C2e8C=C8C2e8Ci>C@C< =C< =C< =C9C9C9C9C9C9Cy=Cv9Cv9C8C	Z<C2e8C=C8C8Ci>CACy=Cy=Cv9Cv9Cv9C=C8C9Ci>CEC=C:Ci>CIC(&@C$>C$>C$>C$>C"<C"<C"<C"<C"<C"<C"<C"<C"<C"<C< =C:C:C:C:C	Z<C:C:C:C:Cy=C:C:C:C:C:C=C:C:Ci>C@C< =C< =C< =C9C	Z<C9C9C9C9Cy=C	Z<Cv9C	Z<C
HC8C=C8C9Ci>CBCy=Cy=Cv9Cv9C9C=C9C:Ci>CFC=C;Ci>CJC-CC@CACBC< =C< =C< =C< =C< =C< =Cy=C9C9C9C	Z<C9C=C9C:Ci>CCCy=Cy=Cv9C	Z<C:C=C	Z<C	Z<Ci>CGC=C<Ci>CKC ECECFCy=Cy=Cy=C=C;C<Ci>CHC=C=C>CLCICJC>C?CMCNC
6C8C7C8C9C:C :C8C8C8C8C9C]6C]6C]6Cz9C
6C
6C8C
6C0g8C#<C :C :C :C :C9C	]<C8C8Cz9C8C8C8C8C0g8CU=C9C9C9Cz9C]6C]6C8C]6C0g8Cր=Cz9Cz9C8C
6C0g8C/=C8C0g8Ci>C~%>C#<C#<C#<C#<C :C	]<C :C :C :C :C :C :C :C :CU=C	]<C9C9C	]<C
HC	]<C8C8C0g8Cր=Cz9Cz9C8C8C0g8C/=C8C0g8Ci>C@CU=CU=CU=C9C9C9C9C9C9Cր=Cz9Cz9C8C	]<C0g8C/=C8CG8Ci>CACր=Cր=Cz9Cz9Cz9C/=C8CG9Ci>CEC/=CG:Ci>CICu&@C~%>C~%>C~%>C~%>C#<C#<C#<C#<C#<C#<C#<C#<C#<C#<CU=C :C :C :C :C	]<C :C :C :C :Cր=C :C :C :C :C :C/=C :C :Ci>C@CU=CU=CU=C9C	]<C9C9C9C9Cր=C	]<Cz9C	]<C
HCG8C/=C8CG9Ci>CBCր=Cր=Cz9Cz9CG9C/=CG9CG:Ci>CFC/=CG;Ci>CJCNCC@CACBCU=CU=CU=CU=CU=CU=Cր=C9C9C9C	]<C9C/=C9CG:Ci>CCCր=Cր=Cz9C	]<CG:C/=C	]<C	]<Ci>CGC/=CG<Ci>CKC ECECFCր=Cր=Cր=C/=CG;CG<Ci>CHC/=CG=CG>CLCICJCG>CG?CMCNC.6C8C7C8C9C:C":C8C8C8C8C(9C#6C#6C#6C0}9C.6C.6C48C.6Ch8C$<C":C":C":C":C(9C	_<C8C8C0}9C8C8C48C8Ch8CT=C(9C(9C(9C0}9C#6C#6C48C#6Ch8C[=C0}9C0}9C48C.6Ch8CJ=C48Ch8Ci>C(&>C$<C$<C$<C$<C":C	_<C":C":C":C":C":C":C":C":CT=C	_<C(9C(9C	_<C
`HC	_<C48C8Ch8C[=C0}9C0}9C48C8Ch8CJ=C48Ch8Ci>C@CT=CT=CT=C(9C(9C(9C(9C(9C(9C[=C0}9C0}9C48C	_<Ch8CJ=C48CƯ8Ci>CAC[=C[=C0}9C0}9C0}9CJ=C48CƯ9Ci>CECJ=CƯ:Ci>CIC&@C(&>C(&>C(&>C(&>C$<C$<C$<C$<C$<C$<C$<C$<C$<C$<CT=C":C":C":C":C	_<C":C":C":C":C[=C":C":C":C":C":CJ=C":C":Ci>C@CT=CT=CT=C(9C	_<C(9C(9C(9C(9C[=C	_<C0}9C	_<C
`HCƯ8CJ=C48CƯ9Ci>CBC[=C[=C0}9C0}9CƯ9CJ=CƯ9CƯ:Ci>CFCJ=CƯ;Ci>CJCTCC@CACBCT=CT=CT=CT=CT=CT=C[=C(9C(9C(9C	_<C(9CJ=C(9CƯ:Ci>CCC[=C[=C0}9C	_<CƯ:CJ=C	_<C	_<Ci>CGCJ=CƯ<Ci>CKC ECECFC[=C[=C[=CJ=CƯ;CƯ<Ci>CHCJ=CƯ=CƯ>CLCICJCƯ>CƯ?CMCNC6C 8C	7C	8C	9C	:C#:C 8C 8C 8C 8C< :C6C6C6C~9C6C6C8C6C%i8C~%<C#:C#:C#:C#:C< :C	^a<C 8C 8C~9C 8C 8C8C 8C%i8C=C< :C< :C< :C~9C6C6C8C6C%i8C=C~9C~9C8C6C%i8C=C8C%i8Ci>Cu&>C~%<C~%<C~%<C~%<C#:C	^a<C#:C#:C#:C#:C#:C#:C#:C#:C=C	^a<C< :C< :C	^a<C
HC	^a<C8C 8C%i8C=C~9C~9C8C 8C%i8C=C8C%i8Ci>C-@C=C=C=C< :C< :C< :C< :C< :C< :C=C~9C~9C8C	^a<C%i8C=C8Cm8Ci>CAC=C=C~9C~9C~9C=C8Cm9Ci>C	EC=Cm:Ci>C	IC&@Cu&>Cu&>Cu&>Cu&>C~%<C~%<C~%<C~%<C~%<C~%<C~%<C~%<C~%<C~%<C=C#:C#:C#:C#:C	^a<C#:C#:C#:C#:C=C#:C#:C#:C#:C#:C=C#:C#:Ci>C-@C=C=C=C< :C	^a<C< :C< :C< :C< :C=C	^a<C~9C	^a<C
HCm8C=C8Cm9Ci>C	BC=C=C~9C~9Cm9C=Cm9Cm:Ci>C	FC=Cm;Ci>C	JCUCC	@C	AC	BC=C=C=C=C=C=C=C< :C< :C< :C	^a<C< :C=C< :Cm:Ci>C	CC=C=C~9C	^a<Cm:C=C	^a<C	^a<Ci>C	GC=Cm<Ci>C	KC EC	EC	FC=C=C=C=Cm;Cm<Ci>C	HC=Cm=Cm>C	LC	IC	JCm>Cm?C	MC	NC6C"8Cl
7Cl
8Cl
9Cl
:C$:C"8C"8C"8C"8CU:C6C6C6Cy9C6C6C8C6Ci8C(&<C$:C$:C$:C$:CU:C	b<C"8C"8Cy9C"8C"8C8C"8Ci8C=CU:CU:CU:Cy9C6C6C8C6Ci8C=Cy9Cy9C8C6Ci8C=C8Ci8Ci>C&>C(&<C(&<C(&<C(&<C$:C	b<C$:C$:C$:C$:C$:C$:C$:C$:C=C	b<CU:CU:C	b<C
HC	b<C8C"8Ci8C=Cy9Cy9C8C"8Ci8C=C8Ci8Ci>CN@C=C=C=CU:CU:CU:CU:CU:CU:C=Cy9Cy9C8C	b<Ci8C=C8C8Ci>C AC=C=Cy9Cy9Cy9C=C8C9Ci>Cl
EC=C:Ci>Cl
IC&@C&>C&>C&>C&>C(&<C(&<C(&<C(&<C(&<C(&<C(&<C(&<C(&<C(&<C=C$:C$:C$:C$:C	b<C$:C$:C$:C$:C=C$:C$:C$:C$:C$:C=C$:C$:Ci>CN@C=C=C=CU:C	b<CU:CU:CU:CU:C=C	b<Cy9C	b<C
HC8C=C8C9Ci>Cl
BC=C=Cy9Cy9C9C=C9C:Ci>Cl
FC=C;Ci>Cl
JCZCCl
@Cl
ACl
BC=C=C=C=C=C=C=CU:CU:CU:C	b<CU:C=CU:C:Ci>Cl
CC=C=Cy9C	b<C:C=C	b<C	b<Ci>Cl
GC=C<Ci>Cl
KC ECl
ECl
FC=C=C=C=C;C<Ci>Cl
HC=C=C>Cl
LCl
ICl
JC>C?Cl
MCl
NC 6C#8C
7C
8C
9C
:C~%:C#8C#8C#8C#8CT:C(6C(6C(6Cր9C 6C 6C8C 6Ci8Cu&<C~%:C~%:C~%:C~%:CT:C	Ac<C#8C#8Cր9C#8C#8C8C#8Ci8C=CT:CT:CT:Cր9C(6C(6C8C(6Ci8C=Cր9Cր9C8C 6Ci8C=C8Ci8Ci>C&>Cu&<Cu&<Cu&<Cu&<C~%:C	Ac<C~%:C~%:C~%:C~%:C~%:C~%:C~%:C~%:C=C	Ac<CT:CT:C	Ac<C
3HC	Ac<C8C#8Ci8C=Cր9Cր9C8C#8Ci8C=C8Ci8Ci>CT@C=C=C=CT:CT:CT:CT:CT:CT:C=Cր9Cր9C8C	Ac<Ci8C=C8CP8Ci>C AC=C=Cր9Cր9Cր9C=C8CP9Ci>C
EC=CP:Ci>C
IC&@C&>C&>C&>C&>Cu&<Cu&<Cu&<Cu&<Cu&<Cu&<Cu&<Cu&<Cu&<Cu&<C=C~%:C~%:C~%:C~%:C	Ac<C~%:C~%:C~%:C~%:C=C~%:C~%:C~%:C~%:C~%:C=C~%:C~%:Ci>CT@C=C=C=CT:C	Ac<CT:CT:CT:CT:C=C	Ac<Cր9C	Ac<C
3HCP8C=C8CP9Ci>C
BC=C=Cր9Cր9CP9C=CP9CP:Ci>C
FC=CP;Ci>C
JCZCC
@C
AC
BC=C=C=C=C=C=C=CT:CT:CT:C	Ac<CT:C=CT:CP:Ci>C
CC=C=Cր9C	Ac<CP:C=C	Ac<C	Ac<Ci>C
GC=CP<Ci>C
KCEC
EC
FC=C=C=C=CP;CP<Ci>C
HC=CP=CP>C
LC
IC
JCP>CP?C
MC
NC"6C$8C7C8C9C:C(&:C$8C$8C$8C$8C:C< 7C< 7C< 7C[9C"6C"6C/8C"6Ci8C&<C(&:C(&:C(&:C(&:C:C	c<C$8C$8C[9C$8C$8C/8C$8Ci8C-=C:C:C:C[9C< 7C< 7C/8C< 7Ci8C=C[9C[9C/8C"6Ci8C=C/8Ci8Ci>C&>C&<C&<C&<C&<C(&:C	c<C(&:C(&:C(&:C(&:C(&:C(&:C(&:C(&:C-=C	c<C:C:C	c<C
DHC	c<C/8C$8Ci8C=C[9C[9C/8C$8Ci8C=C/8Ci8Ci>CU@C-=C-=C-=C:C:C:C:C:C:C=C[9C[9C/8C	c<Ci8C=C/8C˳8Ci>C AC=C=C[9C[9C[9C=C/8C˳9Ci>CEC=C˳:Ci>CIC&@C&>C&>C&>C&>C&<C&<C&<C&<C&<C&<C&<C&<C&<C&<C-=C(&:C(&:C(&:C(&:C	c<C(&:C(&:C(&:C(&:C=C(&:C(&:C(&:C(&:C(&:C=C(&:C(&:Ci>CU@C-=C-=C-=C:C	c<C:C:C:C:C=C	c<C[9C	c<C
DHC˳8C=C/8C˳9Ci>CBC=C=C[9C[9C˳9C=C˳9C˳:Ci>CFC=C˳;Ci>CJC\CC@CACBC-=C-=C-=C-=C-=C-=C=C:C:C:C	c<C:C=C:C˳:Ci>CCC=C=C[9C	c<C˳:C=C	c<C	c<Ci>CGC=C˳<Ci>CKCECECFC=C=C=C=C˳;C˳<Ci>CHC=C˳=C˳>CLCICJC˳>C˳?CMCNC#6C~%8C@7C@8C@9C@:Cu&:C~%8C~%8C~%8C~%8C:CU7CU7CU7C9C#6C#6CJ8C#6Ci8C&<Cu&:Cu&:Cu&:Cu&:C:C	d<C~%8C~%8C9C~%8C~%8CJ8C~%8Ci8CN=C:C:C:C9CU7CU7CJ8CU7Ci8C=C9C9CJ8C#6Ci8C=CJ8Ci8Ci>C&>C&<C&<C&<C&<Cu&:C	d<Cu&:Cu&:Cu&:Cu&:Cu&:Cu&:Cu&:Cu&:CN=C	d<C:C:C	d<C
MHC	d<CJ8C~%8Ci8C=C9C9CJ8C~%8Ci8C=CJ8Ci8Ci>CZ@CN=CN=CN=C:C:C:C:C:C:C=C9C9CJ8C	d<Ci8C=CJ8C8Ci>C AC=C=C9C9C9C=CJ8C9Ci>C@EC=C:Ci>C@IC&@C&>C&>C&>C&>C&<C&<C&<C&<C&<C&<C&<C&<C&<C&<CN=Cu&:Cu&:Cu&:Cu&:C	d<Cu&:Cu&:Cu&:Cu&:C=Cu&:Cu&:Cu&:Cu&:Cu&:C=Cu&:Cu&:Ci>CZ@CN=CN=CN=C:C	d<C:C:C:C:C=C	d<C9C	d<C
MHC8C=CJ8C9Ci>C@BC=C=C9C9C9C=C9C:Ci>C@FC=C;Ci>C@JC]CC@@C@AC@BCN=CN=CN=CN=CN=CN=C=C:C:C:C	d<C:C=C:C:Ci>C@CC=C=C9C	d<C:C=C	d<C	d<Ci>C@GC=C<Ci>C@KC EC@EC@FC=C=C=C=C;C<Ci>C@HC=C=C>C@LC@IC@JC>C?C@MC@NC$6C(&8C_7C_8C_9C_:C&:C(&8C(&8C(&8C(&8C:CT7CT7CT7C9C$6C$6C8C$6Ci8C&<C&:C&:C&:C&:C:C	Fd<C(&8C(&8C9C(&8C(&8C8C(&8Ci8CT=C:C:C:C9CT7CT7C8CT7Ci8C =C9C9C8C$6Ci8C=C8Ci8Ci>C&>C&<C&<C&<C&<C&:C	Fd<C&:C&:C&:C&:C&:C&:C&:C&:CT=C	Fd<C:C:C	Fd<C
]HC	Fd<C8C(&8Ci8C =C9C9C8C(&8Ci8C=C8Ci8Ci>CZ@CT=CT=CT=C:C:C:C:C:C:C =C9C9C8C	Fd<Ci8C=C8CN8Ci>C AC =C =C9C9C9C=C8CN9Ci>C_EC=CN:Ci>C_IC&@C&>C&>C&>C&>C&<C&<C&<C&<C&<C&<C&<C&<C&<C&<CT=C&:C&:C&:C&:C	Fd<C&:C&:C&:C&:C =C&:C&:C&:C&:C&:C=C&:C&:Ci>CZ@CT=CT=CT=C:C	Fd<C:C:C:C:C =C	Fd<C9C	Fd<C
]HCN8C=C8CN9Ci>C_BC =C =C9C9CN9C=CN9CN:Ci>C_FC=CN;Ci>C_JC^CC_@C_AC_BCT=CT=CT=CT=CT=CT=C =C:C:C:C	Fd<C:C=C:CN:Ci>C_CC =C =C9C	Fd<CN:C=C	Fd<C	Fd<Ci>C_GC=CN<Ci>C_KC EC_EC_FC =C =C =C=CN;CN<Ci>C_HC=CN=CN>C_LC_IC_JCN>CN?C_MC_NC~%6Cu&8Cp7Cp8Cp9Cp:C&:Cu&8Cu&8Cu&8Cu&8C-:C7C7C7C9C~%6C~%6C8C~%6Ci8C&<C&:C&:C&:C&:C-:C	bd<Cu&8Cu&8C9Cu&8Cu&8C8Cu&8Ci8CU=C-:C-:C-:C9C7C7C8C7Ci8C =C9C9C8C~%6Ci8C=C8Ci8Ci>C&>C&<C&<C&<C&<C&:C	bd<C&:C&:C&:C&:C&:C&:C&:C&:CU=C	bd<C-:C-:C	bd<C
aHC	bd<C8Cu&8Ci8C =C9C9C8Cu&8Ci8C=C8Ci8Ci>C\@CU=CU=CU=C-:C-:C-:C-:C-:C-:C =C9C9C8C	bd<Ci8C=C8Cf8Ci>CAC =C =C9C9C9C=C8Cf9Ci>CpEC=Cf:Ci>CpIC&@C&>C&>C&>C&>C&<C&<C&<C&<C&<C&<C&<C&<C&<C&<CU=C&:C&:C&:C&:C	bd<C&:C&:C&:C&:C =C&:C&:C&:C&:C&:C=C&:C&:Ci>C\@CU=CU=CU=C-:C	bd<C-:C-:C-:C-:C =C	bd<C9C	bd<C
aHCf8C=C8Cf9Ci>CpBC =C =C9C9Cf9C=Cf9Cf:Ci>CpFC=Cf;Ci>CpJC^CCp@CpACpBCU=CU=CU=CU=CU=CU=C =C-:C-:C-:C	bd<C-:C=C-:Cf:Ci>CpCC =C =C9C	bd<Cf:C=C	bd<C	bd<Ci>CpGC=Cf<Ci>CpKC ECpECpFC =C =C =C=Cf;Cf<Ci>CpHC=Cf=Cf>CpLCpICpJCf>Cf?CpMCpNC(&6C&8C7C8C9C:C&:C&8C&8C&8C&8CN:C7C7C7C9C(&6C(&6C8C(&6Ci8C&<C&:C&:C&:C&:CN:C	qd<C&8C&8C9C&8C&8C8C&8Ci8CZ=CN:CN:CN:C9C7C7C8C7Ci8C =C9C9C8C(&6Ci8C=C8Ci8Ci>C&>C&<C&<C&<C&<C&:C	qd<C&:C&:C&:C&:C&:C&:C&:C&:CZ=C	qd<CN:CN:C	qd<C
bHC	qd<C8C&8Ci8C =C9C9C8C&8Ci8C=C8Ci8Ci>C]@CZ=CZ=CZ=CN:CN:CN:CN:CN:CN:C =C9C9C8C	qd<Ci8C=C8Cz8Ci>CAC =C =C9C9C9C=C8Cz9Ci>CEC=Cz:Ci>CIC&@C&>C&>C&>C&>C&<C&<C&<C&<C&<C&<C&<C&<C&<C&<CZ=C&:C&:C&:C&:C	qd<C&:C&:C&:C&:C =C&:C&:C&:C&:C&:C=C&:C&:Ci>C]@CZ=CZ=CZ=CN:C	qd<CN:CN:CN:CN:C =C	qd<C9C	qd<C
bHCz8C=C8Cz9Ci>CBC =C =C9C9Cz9C=Cz9Cz:Ci>CFC=Cz;Ci>CJC^CC@CACBCZ=CZ=CZ=CZ=CZ=CZ=C =CN:CN:CN:C	qd<CN:C=CN:Cz:Ci>CCC =C =C9C	qd<Cz:C=C	qd<C	qd<Ci>CGC=Cz<Ci>CKC ECECFC =C =C =C=Cz;Cz<Ci>CHC=Cz=Cz>CLCICJCz>Cz?CMCNCu&6C&8C7C8C9C:C&:C&8C&8C&8C&8CT:C7C7C7C9Cu&6Cu&6C8Cu&6Ci8C&<C&:C&:C&:C&:CT:C	d<C&8C&8C9C&8C&8C8C&8Ci8CZ=CT:CT:CT:C9C7C7C8C7Ci8C =C9C9C8Cu&6Ci8C=C8Ci8Ci>C&>C&<C&<C&<C&<C&:C	d<C&:C&:C&:C&:C&:C&:C&:C&:CZ=C	d<CT:CT:C	d<C
bHC	d<C8C&8Ci8C =C9C9C8C&8Ci8C=C8Ci8Ci>C^@CZ=CZ=CZ=CT:CT:CT:CT:CT:CT:C =C9C9C8C	d<Ci8C=C8C8Ci>C AC =C =C9C9C9C=C8C9Ci>CEC=C:Ci>CIC&@C&>C&>C&>C&>C&<C&<C&<C&<C&<C&<C&<C&<C&<C&<CZ=C&:C&:C&:C&:C	d<C&:C&:C&:C&:C =C&:C&:C&:C&:C&:C=C&:C&:Ci>C^@CZ=CZ=CZ=CT:C	d<CT:CT:CT:CT:C =C	d<C9C	d<C
bHC8C=C8C9Ci>CBC =C =C9C9C9C=C9C:Ci>CFC=C;Ci>CJC^CC@CACBCZ=CZ=CZ=CZ=CZ=CZ=C =CT:CT:CT:C	d<CT:C=CT:C:Ci>CCC =C =C9C	d<C:C=C	d<C	d<Ci>CGC=C<Ci>CKC ECECFC =C =C =C=C;C<Ci>CHC=C=C>CLCICJC>C?CMCNC&6C&8C7C8C9C:C&:C&8C&8C&8C&8CU:C-7C-7C-7C 9C&6C&6C8C&6Ci8C&<C&:C&:C&:C&:CU:C	d<C&8C&8C 9C&8C&8C8C&8Ci8C\=CU:CU:CU:C 9C-7C-7C8C-7Ci8C =C 9C 9C8C&6Ci8C=C8Ci8Ci>C&>C&<C&<C&<C&<C&:C	d<C&:C&:C&:C&:C&:C&:C&:C&:C\=C	d<CU:CU:C	d<C
bHC	d<C8C&8Ci8C =C 9C 9C8C&8Ci8C=C8Ci8Ci>C^@C\=C\=C\=CU:CU:CU:CU:CU:CU:C =C 9C 9C8C	d<Ci8C=C8C8Ci>C AC =C =C 9C 9C 9C=C8C9Ci>CEC=C:Ci>CIC&@C&>C&>C&>C&>C&<C&<C&<C&<C&<C&<C&<C&<C&<C&<C\=C&:C&:C&:C&:C	d<C&:C&:C&:C&:C =C&:C&:C&:C&:C&:C=C&:C&:Ci>C^@C\=C\=C\=CU:C	d<CU:CU:CU:CU:C =C	d<C 9C	d<C
bHC8C=C8C9Ci>CBC =C =C 9C 9C9C=C9C:Ci>CFC=C;Ci>CJCZCC@CACBC\=C\=C\=C\=C\=C\=C =CU:CU:CU:C	d<CU:C=CU:C:Ci>CCC =C =C 9C	d<C:C=C	d<C	d<Ci>CGC=C<Ci>CKC ECECFC =C =C =C=C;C<Ci>CHC=C=C>CLCICJC>C?CMCNC&6C&8C7C8C9C:C&:C&8C&8C&8C&8CZ:CN7CN7CN7C 9C&6C&6C8C&6Ci8C&<C&:C&:C&:C&:CZ:C	d<C&8C&8C 9C&8C&8C8C&8Ci8C]=CZ:CZ:CZ:C 9CN7CN7C8CN7Ci8C=C 9C 9C8C&6Ci8C=C8Ci8Ci>C&>C&<C&<C&<C&<C&:C	d<C&:C&:C&:C&:C&:C&:C&:C&:C]=C	d<CZ:CZ:C	d<C
cHC	d<C8C&8Ci8C=C 9C 9C8C&8Ci8C=C8Ci8Ci>C^@C]=C]=C]=CZ:CZ:CZ:CZ:CZ:CZ:C=C 9C 9C8C	d<Ci8C=C8C8Ci>C AC=C=C 9C 9C 9C=C8C9Ci>CEC=C:Ci>CIC&@C&>C&>C&>C&>C&<C&<C&<C&<C&<C&<C&<C&<C&<C&<C]=C&:C&:C&:C&:C	d<C&:C&:C&:C&:C=C&:C&:C&:C&:C&:C=C&:C&:Ci>C^@C]=C]=C]=CZ:C	d<CZ:CZ:CZ:CZ:C=C	d<C 9C	d<C
cHC8C=C8C9Ci>CBC=C=C 9C 9C9C=C9C:Ci>CFC=C;Ci>CJCZCC@CACBC]=C]=C]=C]=C]=C]=C=CZ:CZ:CZ:C	d<CZ:C=CZ:C:Ci>CCC=C=C 9C	d<C:C=C	d<C	d<Ci>CGC=C<Ci>CKC ECECFC=C=C=C=C;C<Ci>CHC=C=C>CLCICJC>C?CMCNC&6C&8C7C8C9C:C&:C&8C&8C&8C&8CZ:CT7CT7CT7C 9C&6C&6C8C&6Ci8C&<C&:C&:C&:C&:CZ:C	d<C&8C&8C 9C&8C&8C8C&8Ci8C^=CZ:CZ:CZ:C 9CT7CT7C8CT7Ci8C=C 9C 9C8C&6Ci8C=C8Ci8Ci>C&>C&<C&<C&<C&<C&:C	d<C&:C&:C&:C&:C&:C&:C&:C&:C^=C	d<CZ:CZ:C	d<C
cHC	d<C8C&8Ci8C=C 9C 9C8C&8Ci8C=C8Ci8Ci>C^@C^=C^=C^=CZ:CZ:CZ:CZ:CZ:CZ:C=C 9C 9C8C	d<Ci8C=C8C8Ci>C AC=C=C 9C 9C 9C=C8C9Ci>CEC=C:Ci>CIC&@C&>C&>C&>C&>C&<C&<C&<C&<C&<C&<C&<C&<C&<C&<C^=C&:C&:C&:C&:C	d<C&:C&:C&:C&:C=C&:C&:C&:C&:C&:C=C&:C&:Ci>C^@C^=C^=C^=CZ:C	d<CZ:CZ:CZ:CZ:C=C	d<C 9C	d<C
cHC8C=C8C9Ci>CBC=C=C 9C 9C9C=C9C:Ci>CFC=C;Ci>CJCZCC@CACBC^=C^=C^=C^=C^=C^=C=CZ:CZ:CZ:C	d<CZ:C=CZ:C:Ci>CCC=C=C 9C	d<C:C=C	d<C	d<Ci>CGC=C<Ci>CKC ECECFC=C=C=C=C;C<Ci>CHC=C=C>CLCICJC>C?CMCNC&6C&8C7C8C9C:C&:C&8C&8C&8C&8C\:CU7CU7CU7C 9C&6C&6C8C&6Ci8C&<C&:C&:C&:C&:C\:C	d<C&8C&8C 9C&8C&8C8C&8Ci8C^=C\:C\:C\:C 9CU7CU7C8CU7Ci8C =C 9C 9C8C&6Ci8C=C8Ci8Ci>C&>C&<C&<C&<C&<C&:C	d<C&:C&:C&:C&:C&:C&:C&:C&:C^=C	d<C\:C\:C	d<C
cHC	d<C8C&8Ci8C =C 9C 9C8C&8Ci8C=C8Ci8Ci>CZ@C^=C^=C^=C\:C\:C\:C\:C\:C\:C =C 9C 9C8C	d<Ci8C=C8C8Ci>C AC =C =C 9C 9C 9C=C8C9Ci>CEC=C:Ci>CIC&@C&>C&>C&>C&>C&<C&<C&<C&<C&<C&<C&<C&<C&<C&<C^=C&:C&:C&:C&:C	d<C&:C&:C&:C&:C =C&:C&:C&:C&:C&:C=C&:C&:Ci>CZ@C^=C^=C^=C\:C	d<C\:C\:C\:C\:C =C	d<C 9C	d<C
cHC8C=C8C9Ci>CBC =C =C 9C 9C9C=C9C:Ci>CFC=C;Ci>CJCZCC@CACBC^=C^=C^=C^=C^=C^=C =C\:C\:C\:C	d<C\:C=C\:C:Ci>CCC =C =C 9C	d<C:C=C	d<C	d<Ci>CGC=C<Ci>CKC ECECFC =C =C =C=C;C<Ci>CHC=C=C>CLCICJC>C?CMCNC&6C&8C7C8C9C:C&:C&8C&8C&8C&8C]:CZ7CZ7CZ7C 9C&6C&6C8C&6Ci8C&<C&:C&:C&:C&:C]:C	d<C&8C&8C 9C&8C&8C8C&8Ci8C^=C]:C]:C]:C 9CZ7CZ7C8CZ7Ci8C =C 9C 9C8C&6Ci8C=C8Ci8Ci>C&>C&<C&<C&<C&<C&:C	d<C&:C&:C&:C&:C&:C&:C&:C&:C^=C	d<C]:C]:C	d<C
cHC	d<C8C&8Ci8C =C 9C 9C8C&8Ci8C=C8Ci8Ci>CZ@C^=C^=C^=C]:C]:C]:C]:C]:C]:C =C 9C 9C8C	d<Ci8C=C8C8Ci>C AC =C =C 9C 9C 9C=C8C9Ci>CEC=C:Ci>CIC&@C&>C&>C&>C&>C&<C&<C&<C&<C&<C&<C&<C&<C&<C&<C^=C&:C&:C&:C&:C	d<C&:C&:C&:C&:C =C&:C&:C&:C&:C&:C=C&:C&:Ci>CZ@C^=C^=C^=C]:C	d<C]:C]:C]:C]:C =C	d<C 9C	d<C
cHC8C=C8C9Ci>CBC =C =C 9C 9C9C=C9C:Ci>CFC=C;Ci>CJCZCC@CACBC^=C^=C^=C^=C^=C^=C =C]:C]:C]:C	d<C]:C=C]:C:Ci>CCC =C =C 9C	d<C:C=C	d<C	d<Ci>CGC=C<Ci>CKC ECECFC =C =C =C=C;C<Ci>CHC=C=C>CLCICJC>C?CMCNC&6C&8C7C8C9C:C&:C&8C&8C&8C&8C^:CZ7CZ7CZ7C9C&6C&6C8C&6Ci8C&<C&:C&:C&:C&:C^:C	d<C&8C&8C9C&8C&8C8C&8Ci8C^=C^:C^:C^:C9CZ7CZ7C8CZ7Ci8C =C9C9C8C&6Ci8C=C8Ci8Ci>C&>C&<C&<C&<C&<C&:C	d<C&:C&:C&:C&:C&:C&:C&:C&:C^=C	d<C^:C^:C	d<C
cHC	d<C8C&8Ci8C =C9C9C8C&8Ci8C=C8Ci8Ci>CZ@C^=C^=C^=C^:C^:C^:C^:C^:C^:C =C9C9C8C	d<Ci8C=C8C8Ci>C AC =C =C9C9C9C=C8C9Ci>CEC=C:Ci>CIC&@C&>C&>C&>C&>C&<C&<C&<C&<C&<C&<C&<C&<C&<C&<C^=C&:C&:C&:C&:C	d<C&:C&:C&:C&:C =C&:C&:C&:C&:C&:C=C&:C&:Ci>CZ@C^=C^=C^=C^:C	d<C^:C^:C^:C^:C =C	d<C9C	d<C
cHC8C=C8C9Ci>CBC =C =C9C9C9C=C9C:Ci>CFC=C;Ci>CJCZCC@CACBC^=C^=C^=C^=C^=C^=C =C^:C^:C^:C	d<C^:C=C^:C:Ci>CCC =C =C9C	d<C:C=C	d<C	d<Ci>CGC=C<Ci>CKC ECECFC =C =C =C=C;C<Ci>CHC=C=C>CLCICJC>C?CMCNC&6C&8C7C8C9C:C&:C&8C&8C&8C&8C^:C\7C\7C\7C9C&6C&6C8C&6Ci8C&<C&:C&:C&:C&:C^:C	d<C&8C&8C9C&8C&8C8C&8Ci8CZ=C^:C^:C^:C9C\7C\7C8C\7Ci8C =C9C9C8C&6Ci8C=C8Ci8Ci>C&>C&<C&<C&<C&<C&:C	d<C&:C&:C&:C&:C&:C&:C&:C&:CZ=C	d<C^:C^:C	d<C
cHC	d<C8C&8Ci8C =C9C9C8C&8Ci8C=C8Ci8Ci>CZ@CZ=CZ=CZ=C^:C^:C^:C^:C^:C^:C =C9C9C8C	d<Ci8C=C8C8Ci>C AC =C =C9C9C9C=C8C9Ci>CEC=C:Ci>CIC&@C&>C&>C&>C&>C&<C&<C&<C&<C&<C&<C&<C&<C&<C&<CZ=C&:C&:C&:C&:C	d<C&:C&:C&:C&:C =C&:C&:C&:C&:C&:C=C&:C&:Ci>CZ@CZ=CZ=CZ=C^:C	d<C^:C^:C^:C^:C =C	d<C9C	d<C
cHC8C=C8C9Ci>CBC =C =C9C9C9C=C9C:Ci>CFC=C;Ci>CJCZCC@CACBCZ=CZ=CZ=CZ=CZ=CZ=C =C^:C^:C^:C	d<C^:C=C^:C:Ci>CCC =C =C9C	d<C:C=C	d<C	d<Ci>CGC=C<Ci>CKC ECECFC =C =C =C=C;C<Ci>CHC=C=C>CLCICJC>C?CMCNC&6C&8C7C8C9C:C&:C&8C&8C&8C&8C^:C]7C]7C]7C 9C&6C&6C8C&6Ci8C&<C&:C&:C&:C&:C^:C	d<C&8C&8C 9C&8C&8C8C&8Ci8CZ=C^:C^:C^:C 9C]7C]7C8C]7Ci8C =C 9C 9C8C&6Ci8C=C8Ci8Ci>C&>C&<C&<C&<C&<C&:C	d<C&:C&:C&:C&:C&:C&:C&:C&:CZ=C	d<C^:C^:C	d<C
cHC	d<C8C&8Ci8C =C 9C 9C8C&8Ci8C=C8Ci8Ci>CZ@CZ=CZ=CZ=C^:C^:C^:C^:C^:C^:C =C 9C 9C8C	d<Ci8C=C8C8Ci>C AC =C =C 9C 9C 9C=C8C9Ci>CEC=C:Ci>CIC&@C&>C&>C&>C&>C&<C&<C&<C&<C&<C&<C&<C&<C&<C&<CZ=C&:C&:C&:C&:C	d<C&:C&:C&:C&:C =C&:C&:C&:C&:C&:C=C&:C&:Ci>CZ@CZ=CZ=CZ=C^:C	d<C^:C^:C^:C^:C =C	d<C 9C	d<C
cHC8C=C8C9Ci>CBC =C =C 9C 9C9C=C9C:Ci>CFC=C;Ci>CJCZCC@CACBCZ=CZ=CZ=CZ=CZ=CZ=C =C^:C^:C^:C	d<C^:C=C^:C:Ci>CCC =C =C 9C	d<C:C=C	d<C	d<Ci>CGC=C<Ci>CKC ECECFC =C =C =C=C;C<Ci>CHC=C=C>CLCICJC>C?CMCNC&6C&8C7C8C9C:C&:C&8C&8C&8C&8C^:C^7C^7C^7C 9C&6C&6C8C&6Ci8C&<C&:C&:C&:C&:C^:C	d<C&8C&8C 9C&8C&8C8C&8Ci8CZ=C^:C^:C^:C 9C^7C^7C8C^7Ci8C =C 9C 9C8C&6Ci8C=C8Ci8Ci>C&>C&<C&<C&<C&<C&:C	d<C&:C&:C&:C&:C&:C&:C&:C&:CZ=C	d<C^:C^:C	d<C
cHC	d<C8C&8Ci8C =C 9C 9C8C&8Ci8C=C8Ci8Ci>CZ@CZ=CZ=CZ=C^:C^:C^:C^:C^:C^:C =C 9C 9C8C	d<Ci8C=C8C8Ci>C AC =C =C 9C 9C 9C=C8C9Ci>CEC=C:Ci>CIC&@C&>C&>C&>C&>C&<C&<C&<C&<C&<C&<C&<C&<C&<C&<CZ=C&:C&:C&:C&:C	d<C&:C&:C&:C&:C =C&:C&:C&:C&:C&:C=C&:C&:Ci>CZ@CZ=CZ=CZ=C^:C	d<C^:C^:C^:C^:C =C	d<C 9C	d<C
cHC8C=C8C9Ci>CBC =C =C 9C 9C9C=C9C:Ci>CFC=C;Ci>CJCZCC@CACBCZ=CZ=CZ=CZ=CZ=CZ=C =C^:C^:C^:C	d<C^:C=C^:C:Ci>CCC =C =C 9C	d<C:C=C	d<C	d<Ci>CGC=C<Ci>CKC ECECFC =C =C =C=C;C<Ci>CHC=C=C>CLCICJC>C?CMCNC&6C&8C7C8C9C:C&:C&8C&8C&8C&8CZ:C^7C^7C^7C 9C&6C&6C8C&6Ci8C&<C&:C&:C&:C&:CZ:C	d<C&8C&8C 9C&8C&8C8C&8Ci8CZ=CZ:CZ:CZ:C 9C^7C^7C8C^7Ci8C =C 9C 9C8C&6Ci8C=C8Ci8Ci>C&>C&<C&<C&<C&<C&:C	d<C&:C&:C&:C&:C&:C&:C&:C&:CZ=C	d<CZ:CZ:C	d<C
bHC	d<C8C&8Ci8C =C 9C 9C8C&8Ci8C=C8Ci8Ci>CZ@CZ=CZ=CZ=CZ:CZ:CZ:CZ:CZ:CZ:C =C 9C 9C8C	d<Ci8C=C8C8Ci>C AC =C =C 9C 9C 9C=C8C9Ci>CEC=C:Ci>CIC&@C&>C&>C&>C&>C&<C&<C&<C&<C&<C&<C&<C&<C&<C&<CZ=C&:C&:C&:C&:C	d<C&:C&:C&:C&:C =C&:C&:C&:C&:C&:C=C&:C&:Ci>CZ@CZ=CZ=CZ=CZ:C	d<CZ:CZ:CZ:CZ:C =C	d<C 9C	d<C
bHC8C=C8C9Ci>CBC =C =C 9C 9C9C=C9C:Ci>CFC=C;Ci>CJCZCC@CACBCZ=CZ=CZ=CZ=CZ=CZ=C =CZ:CZ:CZ:C	d<CZ:C=CZ:C:Ci>CCC =C =C 9C	d<C:C=C	d<C	d<Ci>CGC=C<Ci>CKC ECECFC =C =C =C=C;C<Ci>CHC=C=C>CLCICJC>C?CMCNC&6C&8C7C8C9C:C&:C&8C&8C&8C&8CZ:C^7C^7C^7C 9C&6C&6C8C&6Ci8C&<C&:C&:C&:C&:CZ:C	d<C&8C&8C 9C&8C&8C8C&8Ci8CZ=CZ:CZ:CZ:C 9C^7C^7C8C^7Ci8C =C 9C 9C8C&6Ci8C=C8Ci8Ci>C&>C&<C&<C&<C&<C&:C	d<C&:C&:C&:C&:C&:C&:C&:C&:CZ=C	d<CZ:CZ:C	d<C
bHC	d<C8C&8Ci8C =C 9C 9C8C&8Ci8C=C8Ci8Ci>CZ@CZ=CZ=CZ=CZ:CZ:CZ:CZ:CZ:CZ:C =C 9C 9C8C	d<Ci8C=C8C8Ci>C AC =C =C 9C 9C 9C=C8C9Ci>CEC=C:Ci>CIC&@C&>C&>C&>C&>C&<C&<C&<C&<C&<C&<C&<C&<C&<C&<CZ=C&:C&:C&:C&:C	d<C&:C&:C&:C&:C =C&:C&:C&:C&:C&:C=C&:C&:Ci>CZ@CZ=CZ=CZ=CZ:C	d<CZ:CZ:CZ:CZ:C =C	d<C 9C	d<C
bHC8C=C8C9Ci>CBC =C =C 9C 9C9C=C9C:Ci>CFC=C;Ci>CJCZCC@CACBCZ=CZ=CZ=CZ=CZ=CZ=C =CZ:CZ:CZ:C	d<CZ:C=CZ:C:Ci>CCC =C =C 9C	d<C:C=C	d<C	d<Ci>CGC=C<Ci>CKC ECECFC =C =C =C=C;C<Ci>CHC=C=C>CLCICJC>C?CMCNC&6C&8C7C8C9C:C&:C&8C&8C&8C&8CZ:C^7C^7C^7C 9C&6C&6C8C&6Ci8C&<C&:C&:C&:C&:CZ:C	d<C&8C&8C 9C&8C&8C8C&8Ci8CZ=CZ:CZ:CZ:C 9C^7C^7C8C^7Ci8C =C 9C 9C8C&6Ci8C=C8Ci8Ci>C&>C&<C&<C&<C&<C&:C	d<C&:C&:C&:C&:C&:C&:C&:C&:CZ=C	d<CZ:CZ:C	d<C
cHC	d<C8C&8Ci8C =C 9C 9C8C&8Ci8C=C8Ci8Ci>CZ@CZ=CZ=CZ=CZ:CZ:CZ:CZ:CZ:CZ:C =C 9C 9C8C	d<Ci8C=C8C8Ci>C AC =C =C 9C 9C 9C=C8C9Ci>CEC=C:Ci>CIC&@C&>C&>C&>C&>C&<C&<C&<C&<C&<C&<C&<C&<C&<C&<CZ=C&:C&:C&:C&:C	d<C&:C&:C&:C&:C =C&:C&:C&:C&:C&:C=C&:C&:Ci>CZ@CZ=CZ=CZ=CZ:C	d<CZ:CZ:CZ:CZ:C =C	d<C 9C	d<C
cHC8C=C8C9Ci>CBC =C =C 9C 9C9C=C9C:Ci>CFC=C;Ci>CJCZCC@CACBCZ=CZ=CZ=CZ=CZ=CZ=C =CZ:CZ:CZ:C	d<CZ:C=CZ:C:Ci>CCC =C =C 9C	d<C:C=C	d<C	d<Ci>CGC=C<Ci>CKC ECECFC =C =C =C=C;C<Ci>CHC=C=C>CLCICJC>C?CMCNC&6C&8C7C8C9C:C&:C&8C&8C&8C&8CZ:CZ7CZ7CZ7C 9C&6C&6C8C&6Ci8C&<C&:C&:C&:C&:CZ:C	d<C&8C&8C 9C&8C&8C8C&8Ci8CZ=CZ:CZ:CZ:C 9CZ7CZ7C8CZ7Ci8C =C 9C 9C8C&6Ci8C=C8Ci8Ci>C&>C&<C&<C&<C&<C&:C	d<C&:C&:C&:C&:C&:C&:C&:C&:CZ=C	d<CZ:CZ:C	d<C
cHC	d<C8C&8Ci8C =C 9C 9C8C&8Ci8C=C8Ci8Ci>CZ@CZ=CZ=CZ=CZ:CZ:CZ:CZ:CZ:CZ:C =C 9C 9C8C	d<Ci8C=C8C8Ci>C AC =C =C 9C 9C 9C=C8C9Ci>CEC=C:Ci>CIC&@C&>C&>C&>C&>C&<C&<C&<C&<C&<C&<C&<C&<C&<C&<CZ=C&:C&:C&:C&:C	d<C&:C&:C&:C&:C =C&:C&:C&:C&:C&:C=C&:C&:Ci>CZ@CZ=CZ=CZ=CZ:C	d<CZ:CZ:CZ:CZ:C =C	d<C 9C	d<C
cHC8C=C8C9Ci>CBC =C =C 9C 9C9C=C9C:Ci>CFC=C;Ci>CJCZCC@CACBCZ=CZ=CZ=CZ=CZ=CZ=C =CZ:CZ:CZ:C	d<CZ:C=CZ:C:Ci>CCC =C =C 9C	d<C:C=C	d<C	d<Ci>CGC=C<Ci>CKC ECECFC =C =C =C=C;C<Ci>CHC=C=C>CLCICJC>C?CMCNC&6C&8C7C8C9C:C&:C&8C&8C&8C&8CZ:CZ7CZ7CZ7C 9C&6C&6C8C&6Ci8C&<C&:C&:C&:C&:CZ:C	d<C&8C&8C 9C&8C&8C8C&8Ci8CZ=CZ:CZ:CZ:C 9CZ7CZ7C8CZ7Ci8C =C 9C 9C8C&6Ci8C=C8Ci8Ci>C&>C&<C&<C&<C&<C&:C	d<C&:C&:C&:C&:C&:C&:C&:C&:CZ=C	d<CZ:CZ:C	d<C
cHC	d<C8C&8Ci8C =C 9C 9C8C&8Ci8C=C8Ci8Ci>CZ@CZ=CZ=CZ=CZ:CZ:CZ:CZ:CZ:CZ:C =C 9C 9C8C	d<Ci8C=C8C8Ci>C AC =C =C 9C 9C 9C=C8C9Ci>CEC=C:Ci>CIC&@C&>C&>C&>C&>C&<C&<C&<C&<C&<C&<C&<C&<C&<C&<CZ=C&:C&:C&:C&:C	d<C&:C&:C&:C&:C =C&:C&:C&:C&:C&:C=C&:C&:Ci>CZ@CZ=CZ=CZ=CZ:C	d<CZ:CZ:CZ:CZ:C =C	d<C 9C	d<C
cHC8C=C8C9Ci>CBC =C =C 9C 9C9C=C9C:Ci>CFC=C;Ci>CJCZCC@CACBCZ=CZ=CZ=CZ=CZ=CZ=C =CZ:CZ:CZ:C	d<CZ:C=CZ:C:Ci>CCC =C =C 9C	d<C:C=C	d<C	d<Ci>CGC=C<Ci>CKC ECECFC =C =C =C=C;C<Ci>CHC=C=C>CLCICJC>C?CMCNC&6C&8C7C8C9C:C&:C&8C&8C&8C&8CZ:CZ7CZ7CZ7C 9C&6C&6C8C&6Ci8C&<C&:C&:C&:C&:CZ:C	d<C&8C&8C 9C&8C&8C8C&8Ci8CZ=CZ:CZ:CZ:C 9CZ7CZ7C8CZ7Ci8C =C 9C 9C8C&6Ci8C=C8Ci8Ci>C&>C&<C&<C&<C&<C&:C	d<C&:C&:C&:C&:C&:C&:C&:C&:CZ=C	d<CZ:CZ:C	d<C
cHC	d<C8C&8Ci8C =C 9C 9C8C&8Ci8C=C8Ci8Ci>CZ@CZ=CZ=CZ=CZ:CZ:CZ:CZ:CZ:CZ:C =C 9C 9C8C	d<Ci8C=C8C8Ci>C AC =C =C 9C 9C 9C=C8C9Ci>CEC=C:Ci>CIC&@C&>C&>C&>C&>C&<C&<C&<C&<C&<C&<C&<C&<C&<C&<CZ=C&:C&:C&:C&:C	d<C&:C&:C&:C&:C =C&:C&:C&:C&:C&:C=C&:C&:Ci>CZ@CZ=CZ=CZ=CZ:C	d<CZ:CZ:CZ:CZ:C =C	d<C 9C	d<C
cHC8C=C8C9Ci>CBC =C =C 9C 9C9C=C9C:Ci>CFC=C;Ci>CJCZCC@CACBCZ=CZ=CZ=CZ=CZ=CZ=C =CZ:CZ:CZ:C	d<CZ:C=CZ:C:Ci>CCC =C =C 9C	d<C:C=C	d<C	d<Ci>CGC=C<Ci>CKC ECECFC =C =C =C=C;C<Ci>CHC=C=C>CLCICJC>C?CMCNC&C&CCCCC&C&C&C&C&CZCZCZCZC C&C&CC&CiC&C&C&C&C&CZC	dC&C&C C&C&CC&CiCZCZCZCZC CZCZCCZCiC C C CC&CiCCCiCiC&C&C&C&C&C&C	dC&C&C&C&C&C&C&C&CZC	dCZCZC	dC
h%C	dCC&CiC C C CC&CiCCCiCiCZCZCZCZCZCZCZCZCZCZC C C CC	dCiCCCCiC C C C C C CCCCiC"CCCiC&C&C&C&C&C&C&C&C&C&C&C&C&C&C&C&CZC&C&C&C&C	dC&C&C&C&C C&C&C&C&C&CC&C&CiCZCZCZCZCZC	dCZCZCZCZC C	dC C	dC
h%CCCCCiCC C C C CCCCCiC#CCCiC'CZ CCCCZCZCZCZCZCZC CZCZCZC	dCZCCZCCiC C C C C	dCCC	dC	dCiC$CCCiC(C "C"C#C C C CCCCiC%CCCC)C&C'CCC*C+C